OceanMesh2D   
Run_001
1 20 1 50 1000    	 ! NFOVER 
0        	 ! NABOUT 
50        	 ! NSCREEN 
0        	 ! IHOT 
20         	 ! ICS 
511112          	 ! IM 
1            	 ! NOLIBF 
2            	 ! NOLIFA 
1           	 ! NOLICA 
1           	 ! NOLICAT 
4           	 ! NWP 
primitive_weighting_in_continuity_equation
mannings_n_at_sea_floor
internal_tide_friction
subgrid_barrier
1   	 	 ! NCOR 
1   	 	 ! NTIP 
20               ! NWS
1                ! NRAMP
9.810000         ! G
-3               ! TAU0
2.0              ! DTDP
0                ! STATIM
0                ! REFTIM
 2017 08 23 12 1 0.9 1 1200
7.0000                  ! RNDY
2   	 	 ! DRAMP 
0 1 0   	  ! A00, B00, C00 
0.1 0 0 0.01    	 ! H0, 2*dummy, VELMIN 
-80.994441 31.629691  	 	 ! SLAM0, SFEA0 
0.000500     	 ! CF 
-0.050000     	 	 ! ELSM 
0.000000   	 ! CORI 
8   	 	 ! NTIF 
Q1 
0.019303  6.495854130e-05 0.695000 0.863258 78.581292   	 !  TPK, AMIGT, ETRF, FFT, FACET 
O1 
0.100818  6.759774407e-05 0.695000 0.861314 209.437960   	 !  TPK, AMIGT, ETRF, FFT, FACET 
P1 
0.047037  7.252294576e-05 0.706000 1.010640 267.023647   	 !  TPK, AMIGT, ETRF, FFT, FACET 
K1 
0.141909  7.292115851e-05 0.736000 0.912362 86.421975   	 !  TPK, AMIGT, ETRF, FFT, FACET 
N2 
0.046510  1.378796998e-04 0.693000 1.031262 161.818431   	 !  TPK, AMIGT, ETRF, FFT, FACET 
M2 
0.242922  1.405189028e-04 0.693000 1.030292 292.801129   	 !  TPK, AMIGT, ETRF, FFT, FACET 
S2 
0.113308  1.454441043e-04 0.693000 0.998280 0.076933   	 !  TPK, AMIGT, ETRF, FFT, FACET 
K2 
0.030779  1.458423170e-04 0.693000 0.794679 353.670439   	 !  TPK, AMIGT, ETRF, FFT, FACET 
8   	 	 ! NBFR 
Q1  
 6.495854130e-05 0.863258 78.581292 
O1  
 6.759774407e-05 0.861314 209.437960 
P1  
 7.252294576e-05 1.010640 267.023647 
K1  
 7.292115851e-05 0.912362 86.421975 
N2  
 1.378796998e-04 1.031262 161.818431 
M2  
 1.405189028e-04 1.030292 292.801129 
S2  
 1.454441043e-04 0.998280 0.076933 
K2  
 1.458423170e-04 0.794679 353.670439 
Q1 
 4.802782887e-02      16.52620993 
 4.795835596e-02      16.02773682 
 4.784478530e-02      15.63057868 
 4.772840166e-02      14.84323045 
 4.764162239e-02      13.97941351 
 4.745442719e-02      13.07379538 
 4.727869669e-02       11.8809888 
 4.701315936e-02       11.0547011 
 4.689304089e-02      10.64889491 
 4.656552740e-02      10.11921452 
 4.623628996e-02      9.589334518 
 4.591291384e-02      8.971118889 
 4.558079928e-02      8.607387178 
 4.520302939e-02      8.214358326 
 4.486354035e-02      7.761882111 
 4.448231773e-02      7.473860286 
 4.406771450e-02      7.089434646 
 4.364375391e-02      6.717393482 
 4.322328387e-02      6.282126021 
 4.290196691e-02      6.258914924 
 4.244398403e-02      5.931865638 
 4.212757366e-02      5.486746473 
 4.160355051e-02      5.102003397 
 4.099011703e-02      4.534153863 
 4.033883262e-02      4.032588923 
 3.980034845e-02      3.668501463 
 3.943492120e-02      3.169715023 
 3.887746171e-02      2.649622955 
 3.823166153e-02      1.944771957 
 3.766713199e-02      1.216085069 
O1 
 1.732336494e-01      21.82180933 
 1.734075035e-01      21.39536399 
 1.733210802e-01        21.037834 
 1.735778175e-01      20.37507575 
 1.739997152e-01      19.66486143 
 1.741017917e-01      18.90835673 
 1.744368150e-01      17.92294484 
 1.743284462e-01      17.28053014 
 1.745112067e-01      17.05954798 
 1.740969652e-01      16.70894183 
 1.737090027e-01      16.38066561 
 1.734140525e-01      16.00843753 
 1.729245703e-01      15.82959235 
 1.723868234e-01      15.66890791 
 1.719663404e-01      15.46367257 
 1.713435780e-01      15.39257597 
 1.707109120e-01       15.2702227 
 1.700900276e-01       15.1868412 
 1.695192576e-01      15.07102679 
 1.689269598e-01      15.19838143 
 1.682242549e-01       15.1840757 
 1.678283353e-01      15.03031335 
 1.670270428e-01      15.02824055 
 1.661382951e-01      14.96419177 
 1.651373517e-01      14.97771237 
 1.642702278e-01      15.03971614 
 1.637687970e-01      14.93877864 
 1.628959730e-01      14.94673036 
 1.619067810e-01      14.94589421 
 1.610645842e-01      14.94158073 
P1 
 9.060012516e-02      10.53029726 
 9.023677895e-02      10.26052126 
 8.966760604e-02      10.07114022 
 8.903175606e-02      9.656318451 
 8.849540294e-02      9.182840069 
 8.743015695e-02        8.7472797 
 8.627092194e-02      8.126484057 
 8.502830034e-02      7.840474585 
 8.474792846e-02        7.7720992 
 8.349661066e-02       7.76941257 
 8.224310801e-02      7.795918129 
 8.104990368e-02      7.784328199 
 7.989869032e-02      7.950420992 
 7.871158781e-02       8.18004627 
 7.769198500e-02      8.332948003 
 7.643879340e-02      8.674558804 
 7.510245300e-02      9.017924335 
 7.386063625e-02      9.410150047 
 7.270637908e-02      9.764812463 
 7.171037586e-02      10.30337342 
 7.040660285e-02      10.86054688 
 6.956710442e-02      11.07298253 
 6.813674484e-02      11.74847537 
 6.653698646e-02      12.47650317 
 6.482044550e-02      13.40666311 
 6.340668873e-02      14.27622429 
 6.248632115e-02      14.66352289 
 6.105355207e-02      15.52596063 
 5.935245022e-02      16.52363465 
 5.780562211e-02      17.39077759 
K1 
 2.151438502e-01      10.92419889 
 2.146040749e-01      10.70707513 
 2.134996655e-01      10.63170464 
 2.125091993e-01      10.31840803 
 2.118055259e-01      9.918440155 
 2.098800344e-01      9.693716995 
 2.078807703e-01       9.30248045 
 2.057247147e-01      9.249665464 
 2.057353640e-01       9.15809868 
 2.036056531e-01      9.373575695 
 2.015219584e-01      9.616622252 
 1.996873914e-01      9.793697688 
 1.978029220e-01      10.14306492 
 1.960100759e-01      10.52829739 
 1.946053038e-01       10.7905004 
 1.925994526e-01      11.32270133 
 1.905495665e-01      11.85367423 
 1.887877550e-01      12.37766167 
 1.872897447e-01      12.81500659 
 1.856708534e-01      13.49921296 
 1.838484411e-01      14.17745311 
 1.828769391e-01        14.418265 
 1.809560113e-01      15.18567474 
 1.789619759e-01      15.95598962 
 1.767518155e-01      16.93730291 
 1.749104687e-01      17.82571399 
 1.738932003e-01      18.15026251 
 1.721395756e-01      18.95128701 
 1.701266931e-01      19.80587762 
 1.683574361e-01      20.46743559 
N2 
 3.841118734e-02      269.0610013 
 3.823118276e-02      268.0387062 
 3.800966433e-02      266.9887677 
 3.774023744e-02      265.3199883 
 3.751417989e-02      263.6173418 
 3.719558896e-02      261.3895974 
 3.692337474e-02      258.5946966 
 3.661325844e-02      256.5827322 
 3.637720321e-02      256.2509723 
 3.600807492e-02      254.9270799 
 3.565060112e-02      253.6344964 
 3.525708644e-02      252.3557116 
 3.487584340e-02      251.4196355 
 3.436006753e-02      250.5928151 
 3.382355069e-02      249.8203566 
 3.338951137e-02      249.0106705 
 3.288233105e-02      248.0769877 
 3.227095520e-02      247.3071551 
 3.156595780e-02      246.5543797 
 3.129775186e-02      246.1324219 
 3.066836428e-02      245.3717581 
 3.004962307e-02      244.6784888 
 2.926500877e-02      243.8280511 
 2.820436703e-02      242.7400084 
 2.718257553e-02      241.6250032 
 2.634203202e-02      240.8026404 
 2.552388606e-02      239.9271431 
 2.448894342e-02       238.876364 
 2.314579908e-02      237.4998726 
 2.179865034e-02      236.1039406 
M2 
 1.268559861e-01      280.8511751 
 1.262793622e-01      279.8251321 
 1.253507068e-01      278.7692088 
 1.244556484e-01      277.0923415 
 1.238240860e-01      275.3858845 
 1.225326300e-01       273.137514 
 1.214675491e-01      270.3131388 
 1.203636770e-01      268.2738213 
 1.200997482e-01      267.9981496 
 1.188969342e-01      266.6684699 
 1.177742915e-01      265.3768252 
 1.166901894e-01      264.1354694 
 1.154804860e-01      263.2056342 
 1.139657224e-01      262.4236959 
 1.124919475e-01      261.7325751 
 1.111131820e-01      260.9454022 
 1.095784346e-01      260.0588496 
 1.077679969e-01      259.3755477 
 1.057294372e-01        258.75383 
 1.047732814e-01      258.3115479 
 1.028755671e-01      257.6464598 
 1.011178875e-01      257.1153723 
 9.871248906e-02      256.3980903 
 9.547620639e-02      255.5294396 
 9.231184983e-02      254.6260623 
 8.967635617e-02      253.9598271 
 8.710505852e-02       253.288226 
 8.382233236e-02      252.4725079 
 7.951554433e-02      251.4128432 
 7.513439381e-02      250.3442552 
S2 
 2.919190398e-02      320.9093762 
 2.901123150e-02      319.7434328 
 2.883495552e-02      318.5721053 
 2.857522832e-02      316.6458701 
 2.833740094e-02      314.6449248 
 2.808531697e-02      312.0763146 
 2.786540176e-02      308.8475441 
 2.758638712e-02       306.344885 
 2.729514901e-02      305.5476371 
 2.695942467e-02      303.6536143 
 2.664293747e-02      301.7384113 
 2.630021060e-02      299.7189911 
 2.598314030e-02      298.2120765 
 2.555168172e-02      296.6759168 
 2.510489439e-02      295.1512549 
 2.478409169e-02      293.6543429 
 2.441167237e-02      291.8905741 
 2.395253747e-02      290.2593449 
 2.341331887e-02       288.576876 
 2.325833565e-02      287.6664768 
 2.282826196e-02      285.9397965 
 2.237802312e-02      284.3914658 
 2.185110896e-02      282.4022791 
 2.111923374e-02      279.8667251 
 2.048002355e-02       277.196889 
 1.998306762e-02      275.0754709 
 1.940737779e-02       273.153367 
 1.877584047e-02      270.5694002 
 1.795399027e-02      267.2273376 
 1.711931597e-02      263.8820372 
K2 
 7.099108891e-03      228.8335698 
 7.103383071e-03      228.2949525 
 7.122221931e-03      227.7026952 
 7.133543525e-03      226.8596178 
 7.137433481e-03       226.039856 
 7.174129435e-03      224.9470455 
 7.213864169e-03      223.6041246 
 7.233435600e-03      222.7277791 
 7.180225616e-03       222.806125 
 7.178421337e-03       222.362048 
 7.175418735e-03      221.9915511 
 7.149959499e-03      221.6986497 
 7.131577380e-03      221.4982045 
 7.078740912e-03      221.4245935 
 7.002245407e-03      221.3693171 
 6.979403963e-03      221.3626968 
 6.938084476e-03      221.3414485 
 6.862460856e-03      221.4045676 
 6.750302510e-03      221.4470162 
 6.765304894e-03      221.6372738 
 6.693695268e-03      221.8076224 
 6.573907129e-03       221.795597 
 6.470737363e-03      222.0090074 
 6.297790707e-03      222.1666564 
 6.153268118e-03       222.493762 
 6.046173596e-03      222.9436526 
 5.879270607e-03      222.8905823 
 5.713200213e-03      223.2685942 
 5.481890657e-03      223.7316908 
 5.234221982e-03      224.1690183 
90   	 	 ! ANGINN 
-1 0 75 1000   	 ! NOUTE, TOUTSE, TOUTFE, NSPOOLE 
 588             ! NSTAE
-94.985000 29.681667 ! 8770613  ! NOAA_NOS ! Morgans Point 
-94.793300 29.310000 ! 8771450  ! NOAA_NOS ! Galveston Pier 21 
-94.789400 29.284900 ! 8771510  ! NOAA_NOS ! Galveston Pleasure Pier
-97.046667 28.021667 ! 8774770  ! NOAA_NOS ! Rockport 
-97.216667 27.580000 ! 8775870  ! NOAA_NOS ! Bob Hall Pier Corpus Christi 
-97.215000 26.061667 ! 8779770  ! NOAA_NOS ! Port Isabel 
-94.095692 30.133056 ! BEAT2    ! NOAA_RFS ! Neches River at Beaumont
-93.342778 29.768056 ! CAPL1    ! NOAA_RFS ! Tide Station at Calcasieu Pass 
-96.965278 28.661944 ! DUPT2    ! NOAA_RFS ! Guadalupe River near Bloomington 
-93.221667 30.223611 ! LCLL1    ! NOAA_RFS ! Tide Station at Lake Charles 
-95.976210 28.699167 ! MRCT2    ! NOAA_RFS ! Colorado River at Matagorda
-93.721111 30.097222 ! ORNT2    ! NOAA_RFS ! Sabine River at Orange 
-93.869803 29.728333 ! SBPT2    ! NOAA_RFS ! Tide Station near Sabine Pass
-95.093911 29.875853 ! SHLT2    ! NOAA_RFS ! San Jacinto River near Sheldon
-97.012778 28.792778 ! VICT2    ! NOAA_RFS ! Guadalupe River at Victoria 
-93.721554 30.097988 ! 08030540 ! USGS ! Sabine Rv (at Navy Pier) at Orange 
-95.141320 29.916333 ! 08072000 ! USGS ! Lk Houston nr Sheldon 
-95.093819 29.876581 ! 08072050 ! USGS ! San Jacinto Rv nr Sheldon
-94.774366 29.941342 ! 08067100 ! USGS ! Trinity Rv nr Moss Bluff 
-97.584722 26.235278 ! 08470500 ! USGS ! Arroyo Colorado at FM 106 Rio Hondo 
-94.91721  29.481310 ! 8771013  ! NOAA_NOS ! Eagle Point
-95.302500 28.942764 ! 8772447  ! NOAA_NOS ! USCG Freeport
-93.349043 29.815776 ! 08017118 ! USGS ! Calcasieu River at Cameron 
-95.291047 29.748886 ! 08074710 ! USGS ! Buffalo Bayou at Turning Basin Houston
-95.025556 29.554167 ! 08077637 ! USGS ! Clear Lk Second Outflow Channel at Kemah 
-94.920202 29.447454 ! 08077650 ! USGS ! Moses Lk-Galveston Bay nr Texas City 
-94.731309 29.812443 ! 08067252 ! USGS ! Trinity Rv at Wallisville 
-95.380597 28.897700 ! 08117300 ! USGS ! Brazos Rv at GIWW Flood Gates nr Freeport
-94.963257 29.345790 ! 08077740 ! USGS ! La Marque Levee Pump Sta nr La Marque
-94.924981 29.358372 ! 08077658 ! USGS ! TX City Pump Sta at Texas City
-97.471153 26.801500 ! 8777812  ! TCOON ! Rincon del San Jose
-97.23696  27.634767 ! 8775792  ! TCOON ! Packery Channel
-97.0730   27.840400 ! 8775237  ! TCOON ! Port Aransas
-97.318481 27.484700 ! 8776139  ! TCOON ! South Bird Island
-97.4247   26.559500 ! 8778490  ! TCOON ! Port Mansfield 
-96.6097   28.640400 ! 8773259  ! TCOON ! Port Lavaca 
-97.024981 28.114436 ! 8774513  ! TCOON ! Copano Bay
-97.1671   26.072600 ! 8779748  ! TCOON ! South Padre Island USCG Station 
-96.3961   28.446200 ! 8773701  ! TCOON ! Port O'Connor
-97.40491  27.297020 ! 8776604  ! TCOON ! Baffin Bay 
-93.836700 29.678300 ! 8770822  ! TCOON ! Texas Point Sabine Pass
-97.282558 26.262230 ! 8779280  ! TCOON ! Realitos Peninsula
-94.390325 29.595161 ! 8770808  ! TCOON ! High Island
-95.914075 28.709656 ! 8773146  ! TCOON ! Matagorda City
-96.796583 28.227050 ! 8774230  ! TCOON ! Aransas Wildlife Refuge
-94.896493 29.302336 ! 8771486  ! TCOON ! Galveston Railroad Bridge 
-95.122570 29.075700 ! 8771972  ! TCOON ! San Luis Pass 
-95.2656   29.724700 ! 8770777  ! TCOON ! Manchester Houston
-95.079344 29.765000 ! 8770733  ! TCOON ! Lynchburg Landing
-94.5136   29.515400 ! 8770971  ! TCOON ! Rollover Pass
-93.931400 29.867500 ! 8770475  ! TCOON ! Port Arthur
-94.725978 29.357586 ! 8771341  ! TCOON ! Galveston Bay Entrance North Jetty
-97.485958 27.832750 ! 8775244  ! TCOON ! Nueces Bay 
-96.712569 28.406194 ! 8773037  ! TCOON ! Seadrift
-97.2035   27.820800 ! 8775283  ! TCOON ! Port Ingleside  
-97.3984   27.814300 ! 8775296  ! TCOON ! TX State Aquarium (USS Lexington) 
-95.616667 28.771667 ! 8772985  ! TCOON ! Sargent 
-97.484000 27.859500 ! 8775188  ! TCOON ! White Point  
-97.520800 27.845900 ! 8775222  ! TCOON ! Viola Turning Basin
-95.2083 29.2119 ! SSS-TX-BRA-001 ! USGS ! Deployable 
-95.2881 29.0847 ! SSS-TX-BRA-002 ! USGS ! Deployable 
-95.4486 28.8683 ! SSS-TX-BRA-004 ! USGS ! Deployable 
-95.5556 28.9494 ! SSS-TX-BRA-005 ! USGS ! Deployable 
-95.5872 28.8667 ! SSS-TX-BRA-006 ! USGS ! Deployable 
-95.1314 29.2867 ! SSS-TX-BRA-007 ! USGS ! Deployable 
-95.3989 29.0356 ! SSS-TX-BRA-008 ! USGS ! Deployable 
-95.3297 29.0131 ! SSS-TX-BRA-009 ! USGS ! Deployable 
-95.2842 29.3364 ! SSS-TX-BRA-010 ! USGS ! Deployable 
-95.3567 29.2967 ! SSS-TX-BRA-011 ! USGS ! Deployable 
-94.7511 29.3344 ! SSS-TX-GAL-008 ! USGS ! Deployable 
-94.8778 29.2381 ! SSS-TX-GAL-010 ! USGS ! Deployable 
-94.9447 29.2208 ! SSS-TX-GAL-011 ! USGS ! Deployable 
-95.1172 29.0861 ! SSS-TX-GAL-015 ! USGS ! Deployable 
-94.9053 29.3039 ! SSS-TX-GAL-016 ! USGS ! Deployable 
-95.04   29.3558 ! SSS-TX-GAL-018 ! USGS ! Deployable 
-94.9578 29.5064 ! SSS-TX-GAL-019 ! USGS ! Deployable 
-95.0478 29.4567 ! SSS-TX-GAL-020 ! USGS ! Deployable 
-95.1039 29.5133 ! SSS-TX-GAL-021 ! USGS ! Deployable 
-95.0247 29.5517 ! SSS-TX-GAL-022 ! USGS ! Deployable 
-94.9989 29.6203 ! SSS-TX-HAR-002 ! USGS ! Deployable 
-95.1283 29.5919 ! SSS-TX-HAR-003 ! USGS ! Deployable 
-94.9933 29.7131 ! SSS-TX-HAR-004 ! USGS ! Deployable 
-96.2739 28.7206 ! SSS-TX-MAT-001 ! USGS ! Deployable 
-96.1503 28.7864 ! SSS-TX-MAT-002 ! USGS ! Deployable 
-95.9958 28.7875 ! SSS-TX-MAT-003 ! USGS ! Deployable 
-95.8528 28.8389 ! SSS-TX-MAT-004 ! USGS ! Deployable 
-95.9781 28.6006 ! SSS-TX-MAT-005 ! USGS ! Deployable 
-95.9756 28.6831 ! SSS-TX-MAT-006 ! USGS ! Deployable 
-96.2153 28.6114 ! SSS-TX-MAT-007 ! USGS ! Deployable 
-95.6269 28.7642 ! SSS-TX-MAT-008 ! USGS ! Deployable 
-95.6167 28.7706 ! SSS-TX-MAT-009 ! USGS ! Deployable 
-95.6683 28.8364 ! SSS-TX-MAT-010 ! USGS ! Deployable 
-96.7117 28.4064 ! SSS-TX-CAL-001 ! USGS ! Deployable 
-96.4025 28.4444 ! SSS-TX-CAL-002 ! USGS ! Deployable 
-96.6197 28.6192 ! SSS-TX-CAL-003 ! USGS ! Deployable 
-96.4117 28.6606 ! SSS-TX-CAL-004 ! USGS ! Deployable 
-96.3233 28.6414 ! SSS-TX-CAL-005 ! USGS ! Deployable 
-94.6753 29.6042 ! SSS-TX-CHA-003 ! USGS ! Deployable 
-94.6869 29.7728 ! SSS-TX-CHA-004 ! USGS ! Deployable 
-94.6342 29.4514 ! SSS-TX-GAL-001 ! USGS ! Deployable 
-94.6481 29.4658 ! SSS-TX-GAL-002 ! USGS ! Deployable 
-94.3903 29.5944 ! SSS-TX-GAL-005 ! USGS ! Deployable 
-94.1928 29.6844 ! SSS-TX-JEF-001 ! USGS ! Deployable 
-94.0436 29.675  ! SSS-TX-JEF-002 ! USGS ! Deployable 
-94.1164 29.7103 ! SSS-TX-JEF-004 ! USGS ! Deployable 
-94.0983 29.6969 ! SSS-TX-JEF-005 ! USGS ! Deployable 
-93.86   29.7111 ! SSS-TX-JEF-006 ! USGS ! Deployable 
-93.9425 29.7739 ! SSS-TX-JEF-007 ! USGS ! Deployable 
-93.8978 29.7647 ! SSS-TX-JEF-008 ! USGS ! Deployable 
-94.0884 29.6627 ! SSS-TX-JEF-009 ! USGS ! Deployable 
-93.6636 29.7503 ! SSS-LA-CAM-001 ! USGS ! Deployable 
-93.5825 29.7619 ! SSS-LA-CAM-002 ! USGS ! Deployable 
-93.3489 29.8042 ! SSS-LA-CAM-003 ! USGS ! Deployable 
-93.115  29.7861 ! SSS-LA-CAM-010 ! USGS ! Deployable 
-93.0797 29.8706 ! SSS-LA-CAM-011 ! USGS ! Deployable 
-93.0144 29.7706 ! SSS-LA-CAM-012 ! USGS ! Deployable 
-92.4269 29.6411 ! SSS-LA-VER-006 ! USGS ! Deployable 
-92.3417 29.6003 ! SSS-LA-VER-007 ! USGS ! Deployable 
-89.7406 30.1669 ! ut60 ! USGS ! Rigolets at Hwy 90 near Slidell, LA
-90.01   29.48305 ! ut61 ! USGS ! Barataria Waterway S of Lafitte, LA    
-90.1    29.4666 ! ut62 ! USGS ! Little Lake near Bay Dosgris E of Galliano, LA
-89.9405 29.32472 ! ut63 ! USGS ! Barataria Bay near Grand Terre Island, LA      
-90.0411 29.3983 ! ut64 ! USGS ! Hackberry Bay NW of Grand Isle, LA     
-95.9689 28.6844 ! ut65 ! USGS ! Colorado Rv Bypass Channel nr Matagorda, TX    
-95.3814 28.8978 ! ut66 ! USGS ! Brazos Rv at GIWW Flood Gates nr Freeport, TX  
-94.9631 29.3456 ! ut67 ! USGS ! La Marque Levee Pump Sta nr La Marque, TX 
-94.9247 29.3572 ! ut68 ! USGS ! TX City Pump Sta at Texas City, TX
-94.12   29.4472 ! ut69 ! USGS ! Moses Lk-Galveston Bay nr Texas City, TX       
-95.0237 29.5497 ! ut70 ! USGS ! Clear Lk Second Outflow Channel at Kemah, TX
-95.1783 29.5172 ! ut71 ! USGS ! Clear Ck nr Friendswood, TX    
-95.2907 29.7492 ! ut72 ! USGS ! Buffalo Bayou at Turning Basin, Houston, TX 
-94.7311 29.8122 ! ut73 ! USGS ! Trinity Rv at Wallisville, TX  
-93.3488 29.8155 ! ut74 ! USGS ! Calcasieu River at Cameron, LA         
-90.1814 29.5175 ! ut75 ! USGS ! Little Lake Near Cutoff, LA    
-89.9506 29.4225 ! ut76 ! USGS ! Barataria Bay N of Grand Isle, LA      
-89.606  29.5858 ! ut77 ! USGS ! Northeast Bay Gardene near Point-A-LA-Hache, LA
-89.5636 29.6333 ! ut78 ! USGS ! Black Bay nr Snake Island nr Point-A-LA-Hache, LA
-97.2154 26.0616 ! ut79 ! TCOON ! Port Isabel, TX 
-93.9314 29.8675 ! ut80 ! TCOON ! Port Arthur 
-93.88   29.98   ! ut81 ! TCOON ! Rainbow Bridge
-93.8705 29.7297 ! ut82 ! TCOON ! Sabine Pass
-94.9847 29.682  ! ut83 ! TCOON ! Morgans Point
-95.2656 29.7247 ! ut84 ! TCOON ! Manchester Houston
-93.8367 29.6783 ! ut85 ! TCOON ! Texas Point 
-94.5136 29.5154 ! ut86 ! TCOON ! Rollover Pass 
-94.91721 29.48131 ! ut87 ! TCOON ! Eagle Point
-94.787 29.3137  ! ut88 ! TCOON ! Galveston Pier 21
-94.7883 29.285  ! ut89 ! TCOON ! Galveston Pleasure Pier
-95.3025 28.9423 ! ut90 ! TCOON ! USCG Freeport
-96.7122 28.4073 ! ut91 ! TCOON ! Seadrift
-96.6097 28.6404 ! ut92 ! TCOON ! Port Lavaca
-96.3961 28.4462 ! ut93 ! TCOON ! Port O'Connor
-97.0242 28.1145 ! ut94 ! TCOON ! Copano Bay
-97.0478 28.0234 ! ut95 ! TCOON ! Rockport
-97.484  27.8595 ! ut96 ! TCOON ! White Point
-97.5208 27.8459 ! ut97 ! TCOON ! Viola Turning Basin
-97.073  27.8404 ! ut98 ! TCOON ! Port Aransas
-97.2035 27.8208 ! ut99 ! TCOON ! Ingleside
-97.3984 27.8143 ! ut100 ! TCOON ! TX State Aquarium       
-97.23696 27.63457 ! ut101 ! TCOON ! Packery Channel 
-97.21646 27.58102 ! ut102 ! TCOON ! Bob Hall Pier   
-97.3181  27.4847  ! ut103 ! TCOON ! South Bird island       
-97.40491 27.29702 ! ut104 ! TCOON ! Baffin Bay      
-97.4706  26.8015  ! ut105 ! TCOON ! Rincon del San Jose     
-97.4247  26.5595  ! ut106 ! TCOON ! Port Mansfield  
-97.1671  26.0726  ! ut107 ! TCOON ! South Padre Island USCG Station
-88.075   30.25    ! ut108 ! NOAA ! Dauphin Island Start of NOAA Stations   
-89.325   30.325   ! ut109 ! NOAA ! Bay Waveland Yacht Club 
-89.4066  28.9316  ! ut110 ! NOAA ! Pilots Station East SW Pass     
-91.88    29.7133  ! ut111 ! NOAA ! Cypremont Point 
-93.2222  30.2237  ! ut112 ! NOAA ! Lk Charles, Calcasieu Rvr
-93.3431  29.7663  ! ut113 ! NOAA ! Calcasieu Pass, East Jetty
-97.2166  27.58    ! ut114 ! NOAA ! Corpus Christi, GOM 
-97.1176  27.6289  ! ut115 ! UND ! R Kennedy
-96.5503  28.2077  ! ut116 ! UND ! S Kennedy      
-96.214   28.4347  ! ut117 ! UND ! T Kennedy
-95.75235 28.6251  ! ut118 ! UND ! U Kennedy
-95.3151  28.8704  ! ut119 ! UND ! V Kennedy
-95.0396  29.0714  ! ut120 ! UND ! W Kennedy
-94.70895 29.2812  ! ut121 ! UND ! X Kennedy
-94.3884  29.4964  ! ut122 ! UND ! Y Kennedy
-94.1253  29.5846  ! ut123 ! UND ! Z Kennedy
-81.121   24.7294  ! ut124 ! NOAA ! Vaca Key
-81.8259 24.5573   ! ut125 ! NOAA ! Key West        
-81.8239 26.1434   ! ut126 ! NOAA ! Naples  
-82.8317 27.9783   ! ut127 ! NOAA ! Clearwater Beach        
-83.0317 29.135    ! ut128 ! NOAA ! Cedar Key       
-84.9773 29.7136   ! ut129 ! NOAA ! Apalachicola
-85.7113 30.0972   ! ut130 ! NOAA ! Panama City
-88.5054 30.3477   ! ut131 ! NOAA ! Dock E Port of Pascagoula
-88.563  30.3679   ! ut132 ! NOAA ! Pascagoula NOAA lab
-89.0817 30.36     ! ut133 ! NOAA ! gulfport Harbor
-89.6733 29.8681   ! ut134 ! NOAA ! Shell Beach
-89.9545 29.2676   ! ut135 ! NOAA ! Grand Isle
-90.1134 30.0272   ! ut136 ! NOAA ! New Canal Station
-90.1985 29.0848   ! ut137 ! NOAA ! Port Fourchon
-91.3381 29.4496   ! ut138 ! NOAA ! Lawma Aerada Pass
-91.88   29.7134   ! ut139 ! NOAA ! Cypremort Point
-92.30816 29.5341  ! ut140 ! NOAA ! Freshwater Canal Locks
-93.6402  29.6424  ! TABS-R ! UT ! Current Station
-94.2365  28.8369  ! TABS-F ! UT ! Current Station
-94.9183  28.9819  ! TABS-B ! UT ! Current Station
-94.05    29.67    ! SRST2  ! NDBC ! Current Station
-94.41    29.25    ! 42035  ! NDBC ! Current Station
-96.0221  28.3348  ! W    ! UT ! Current Station
-95.36    27.92    ! 42019  ! NDBC ! Current Station
-96.8083  27.9328  ! TABS-D ! UT ! Current Station 
-95.1127  29.7352  ! ut149 ! hanadi ! Deer Park Plant
-95.1841  29.7447  ! ut150 ! hanadi !  Gulf Sulphur Services
-95.0298  29.7328  ! ut151 ! hanadi ! Georgia Gulf Chems
-95.1029  29.8152  ! ut152 ! hanadi ! Greens Bayou Industrial
-94.8177  29.7547  ! ut153 ! hanadi ! Cedar Bayou Electric
-95.0706  29.7654  ! ut154 ! hanadi ! Houston Marine Services
-95.1913  29.7449  ! ut155 ! hanadi ! Greens Port Industrial
-95.2285  29.7313  ! ut156 ! hanadi ! American Texmark
-95.1766  29.7608  ! ut157 ! hanadi ! Atofina Chemicals
-95.1141  29.713   ! ut158 ! hanadi ! Deer Park Facility
-95.1667  29.7431  ! ut159 ! hanadi ! Pasadena Plant
-95.0766  29.7686  ! ut160 ! hanadi ! Channel Shipyard Co.
-95.1660  29.7486  ! ut161 ! hanadi ! Port of Houston Bulk Terminal
-94.9113  29.3649  ! ut162 ! hanadi ! Texas City Plant
-95.3032  29.7538  ! ut163 ! hanadi !  ReedHycalag Plant
-95.09491667 29.74438889 ! ut164 ! hanadi ! VOPAK TERMINAL DEER PARK INC
-95.09658333 29.74772222 ! ut165 ! hanadi ! VOPAK TERMINAL DEER PARK INC
-95.09575    29.74855556 ! ut166 ! hanadi ! VOPAK TERMINAL DEER PARK INC
-95.10547222 29.75022222 ! ut167 ! hanadi ! PRECOAT METALS DIVISION PLANT
-95.10052778 29.75113889 ! ut168 ! hanadi ! HFOTCO LLC
-95.09908333 29.75161111 ! ut169 ! hanadi ! OIL STATES INDUSTRIES WWTP
-95.10686111 29.743      ! ut170 ! hanadi ! CARE TERMINAL WWTP
-95.10572222 29.73986111 ! ut171 ! hanadi ! ROHM AND HASS TEXAS  INC.
-95.12241667 29.733      ! ut172 ! hanadi ! DEER PARK CHEMICAL PLANT
-95.12438889 29.73230556 ! ut173 ! hanadi ! SHELL OIL COMPANY
-95.12763889 29.73213889 ! ut174 ! hanadi ! SHELL OIL COMPANY
-95.14097222 29.73419444 ! ut175 ! hanadi ! SHELL OIL COMPANY
-95.13936111 29.733      ! ut176 ! hanadi ! DEER PARK ENERGY CENTER
-95.14741667 29.73494444 ! ut177 ! hanadi ! KINDER MORGAN PETCOKE  LP
-95.16019444 29.74383333 ! ut178 ! hanadi ! CALTEX MILL
-95.17519444 29.71938889 ! ut179 ! hanadi ! PASADENA TERMINAL
-95.1545     29.73280556 ! ut180 ! hanadi ! GEORGIA GULF CHEMS/VINYLS WWTP
-95.16602778 29.74855556 ! ut181 ! hanadi ! PORT OF HOUSTON BULK TERMINAL
-95.16825    29.74494444 ! ut182 ! hanadi ! ETHYL CORPORTATION
-95.16669444 29.74311111 ! ut183 ! hanadi ! PASADENA PLANT
-95.167      29.74241667 ! ut184 ! hanadi ! PASADENA PLANT
-95.17308333 29.74602778 ! ut185 ! hanadi ! PASADENA PLANT
-95.17269444 29.74105556 ! ut186 ! hanadi ! PASADENA PLASTICS COMPLEX
-95.18436111 29.74466667 ! ut187 ! hanadi ! GEREKE CHEMICALS INC.
-95.18575    29.74466667 ! ut188 ! hanadi ! GEREKE CHEMICALS INC.
-95.18408333 29.74466667 ! ut189 ! hanadi ! FKP-PASADENA  LLC
-95.18686111 29.74605556 ! ut190 ! hanadi ! GREENS PORT INDUSTRIAL PARK
-95.19130556 29.74494444 ! ut191 ! hanadi ! GREENS PORT INDUSTRIAL PARK
-95.19261111 29.74233333 ! ut192 ! hanadi ! AGRIFOS FERTILIZER  INC. -WWTP
-95.19844444 29.74030556 ! ut193 ! hanadi ! AGRIFOS FERTILIZER  INC. -WWTP
-95.23075    29.72327778 ! ut194 ! hanadi ! HOUSTON REFINING  L.P.
-95.23130556 29.723      ! ut195 ! hanadi ! HOUSTON REFINING  L.P.
-95.23630556 29.72244444 ! ut196 ! hanadi ! VOPAK TERMINAL GALENA PARK INC
-95.23908333 29.71661111 ! ut197 ! hanadi ! HOUSTON REFINING  L.P.
-95.19588889 29.74497222 ! ut198 ! hanadi ! GALENA PARK TERMINAL - WWTP
-95.24972222 29.72061111 ! ut199 ! hanadi ! VALERO REFINING - TEXAS LP
-95.25213889 29.72383333 ! ut200 ! hanadi ! VALERO REFINING - TEXAS LP
-95.25186111 29.72411111 ! ut201 ! hanadi ! VALERO REFINING - TEXAS LP
-95.26047222 29.72605556 ! ut202 ! hanadi ! VALERO REFINING - TEXAS LP
-95.25630556 29.72605556 ! ut203 ! hanadi ! VALERO REFINING - TEXAS LP
-95.26047222 29.72605556 ! ut204 ! hanadi ! VALERO REFINING - TEXAS LP
-95.26269444 29.72522222 ! ut205 ! hanadi ! SOUTH COAST TERMINALS  L.P.
-95.26325    29.72438889 ! ut206 ! hanadi ! OXID  L.P.
-95.26269444 29.72522222 ! ut207 ! hanadi ! OUTH COAST TERMINALS  L.P.
-95.26491667 29.72438889 ! ut208 ! hanadi ! SOUTH COAST TERMINALS LP -WWTP
-95.27102778 29.72383333 ! ut209 ! hanadi ! SWS HOLDINGS-BRADY ISLAND  LP
-95.27158333 29.72411111 ! ut210 ! hanadi ! SWS HOLDINGS-BRADY ISLAND  LP
-95.27241667 29.72411111 ! ut211 ! hanadi ! SWS HOLDINGS-BRADY ISLAND  LP
-95.27380556 29.72502778 ! ut212 ! hanadi ! SWS HOLDINGS-BRADY ISLAND  LP
-95.30325    29.75383333 ! ut213 ! hanadi ! REEDHYCALOG PLANT
-95.3055     29.75530556 ! ut214 ! hanadi ! PETROLEUM COKE GRINDING - WWTP
-95.3075     29.75430556 ! ut215 ! hanadi ! PETROLEUM COKE GRINDING - WWTP
-95.30869444 29.75411111 ! ut216 ! hanadi ! PETROLEUM COKE GRINDING - WWTP
-95.0015     29.7018 ! ut217 ! bedient ! Houston Ship Channel entrance (d/s of SH146 bridge)
-95.1370     29.7354 ! ut218 ! bedient ! Houston Ship Channel at the Port of Houston
-95.0248     29.5493 ! ut219 ! bedient ! Entrance to Clear Lake (u/s SH146 bridge)
-95.0566     29.5603 ! ut220 ! bedient ! Clear Lake at Taylor Lake entrance
-95.0802     29.5463 ! ut221 ! bedient ! Clear Lake at Clear Creek entrance
-94.9146     29.4484 ! ut222 ! bedient ! Texas City levee at Moses Lake entrance
-94.8814     29.3034 ! ut223 ! bedient ! West Galveston Bay at I-45 bridge
-94.8552     29.5876 ! ut224 ! bedient ! Central Galveston Bay
-94.9981 29.7140 ! ut226 ! Padgett ! WEST MAIN STREET SH 146 NB
-94.9981 29.7140 ! ut227 ! Padgett ! WEST MAIN STREET SH 146 NB
-94.9997 29.7143 ! ut228 ! Padgett ! WEST MAIN STREET SH 146 NB
-94.9987 29.7149 ! ut229 ! Padgett ! WEST MAIN STREET SH 146 NB
-94.9973 29.7171 ! ut230 ! Padgett ! WEST MAIN STREET SH 146 NB
-94.9973 29.7171 ! ut231 ! Padgett ! WEST MAIN STREET SH 146 NB
-94.9916 29.7236 ! ut232 ! Padgett ! WEST MAIN STREET SH 146 NB
-94.9916 29.7236 ! ut233 ! Padgett ! WEST MAIN STREET SH 146 NB
-94.9918 29.7236 ! ut234 ! Padgett ! WEST MAIN STREET SH 146 NB
-94.9918 29.7236 ! ut235 ! Padgett ! WEST MAIN STREET SH 146 NB
-94.9932 29.7297 ! ut236 ! Padgett ! WEST MAIN STREET SH 146 NB
-94.9932 29.7297 ! ut237 ! Padgett ! WEST MAIN STREET SH 146 NB
-94.9930 29.7297 ! ut238 ! Padgett ! WEST MAIN STREET SH 146 NB
-94.9930 29.7297 ! ut239 ! Padgett ! WEST MAIN STREET SH 146 NB
-94.9907 29.7403 ! ut240 ! Padgett ! WEST MAIN STREET SH 146 NB
-94.9907 29.7403 ! ut241 ! Padgett ! WEST MAIN STREET SH 146 NB
-94.9906 29.7407 ! ut242 ! Padgett ! WEST MAIN STREET SH 146 NB
-94.8254 29.2959 ! ut243 ! Padgett ! SP & ATSF RR SEAWOLF PKWY
-94.8269 29.2973 ! ut244 ! Padgett ! UP RR AND CONN RAMP SH 275 (W OF 51ST)
-94.8261 29.2981 ! ut245 ! Padgett ! UP RR AND CONN RAMP SH 275 (W OF 51ST)
-94.8629 29.2853 ! ut246 ! Padgett ! BNSF RR IH 45 NB
-94.8629 29.2853 ! ut247 ! Padgett ! BNSF RR IH 45 NB
-94.8629 29.2854 ! ut248 ! Padgett ! BNSF RR IH 45 NB
-94.8629 29.2854 ! ut249 ! Padgett ! BNSF RR IH 45 NB
-94.8378 29.2883 ! ut250 ! Padgett ! BNSF RR IH 45 NB
-94.8378 29.2883 ! ut251 ! Padgett ! BNSF RR IH 45 NB
-94.8503 29.2884 ! ut252 ! Padgett ! BNSF RR IH 45 NB
-94.8503 29.2884 ! ut253 ! Padgett ! BNSF RR IH 45 NB
-94.8379 29.2885 ! ut254 ! Padgett ! BNSF RR IH 45 NB
-94.8379 29.2885 ! ut255 ! Padgett ! BNSF RR IH 45 NB
-94.8504 29.2886 ! ut256 ! Padgett ! BNSF RR IH 45 NB
-94.8504 29.2886 ! ut257 ! Padgett ! BNSF RR IH 45 NB
-94.8765 29.2913 ! ut258 ! Padgett ! BNSF RR IH 45 NB
-94.9060 29.3070 ! ut259 ! Padgett ! BNSF RR IH 45 NB
-94.9058 29.3070 ! ut260 ! Padgett ! BNSF RR IH 45 NB
-94.9230 29.3225 ! ut261 ! Padgett ! BNSF RR IH 45 NB