OceanMesh2D 
Run_001
1         	 ! NFOVER 
0        	 ! NABOUT 
1000        	 ! NSCREEN 
0        	 ! IHOT 
2        	 ! ICS 
511112        	 ! IM 
1        	 ! NOLIBF 
2        	 ! NOLIFA 
1        	 ! NOLICA 
1        	 ! NOLICAT 
0        	 ! NWP 
1   	 	 ! NCOR 
0   	 	 ! NTIP 
0   	 	 ! NWS 
0   	 	 ! NRAMP 
9.810000   	 ! G  
-1   	 	 ! TAU0 
2  	 	 ! DTDP 
0  	 	 ! STATIM 
0  	 	 ! REFTIM 
1.00   	 	 ! RNDY 
0  	 	 ! DRAMP 
0 1 0  	 ! A00, B00, C00 
0.1 0 0 0.01    	 ! H0, 2*dummy, VELMIN 
-82.001148 21.583174  	 	 ! SLAM0, SFEA0 
0.002500     	 ! CF 
-0.000000     	 ! ELSM 
0.000000   	 ! CORI 
8   	 	 ! NTIF 
Q1 
0.019303  6.495854130e-05 0.695000 1.136379 2.490904   	 !  TPK, AMIGT, ETRF, FFT, FACET 
O1 
0.100818  6.759774407e-05 0.695000 1.151734 153.723666   	 !  TPK, AMIGT, ETRF, FFT, FACET 
P1 
0.047037  7.252294576e-05 0.706000 0.994009 285.402345   	 !  TPK, AMIGT, ETRF, FFT, FACET 
K1 
0.141909  7.292115851e-05 0.736000 1.089219 80.404174   	 !  TPK, AMIGT, ETRF, FFT, FACET 
N2 
0.046510  1.378796998e-04 0.693000 0.974235 85.208263   	 !  TPK, AMIGT, ETRF, FFT, FACET 
M2 
0.242922  1.405189028e-04 0.693000 0.972866 236.429220   	 !  TPK, AMIGT, ETRF, FFT, FACET 
S2 
0.113308  1.454441043e-04 0.693000 1.001612 359.915367   	 !  TPK, AMIGT, ETRF, FFT, FACET 
K2 
0.030779  1.458423170e-04 0.693000 1.232485 341.338500   	 !  TPK, AMIGT, ETRF, FFT, FACET 
8   	 	 ! NBFR 
Q1  
 6.495854130e-05 1.136379 2.490904 
O1  
 6.759774407e-05 1.151734 153.723666 
P1  
 7.252294576e-05 0.994009 285.402345 
K1  
 7.292115851e-05 1.089219 80.404174 
N2  
 1.378796998e-04 0.974235 85.208263 
M2  
 1.405189028e-04 0.972866 236.429220 
S2  
 1.454441043e-04 1.001612 359.915367 
K2  
 1.458423170e-04 1.232485 341.338500 
Q1 
 7.903586319e-03      319.0055292 
 7.920309305e-03      319.3815049 
 7.920940210e-03      319.7595876 
 7.924955934e-03      320.2151924 
 7.876593802e-03      320.1806435 
 7.863043462e-03      320.3951697 
 7.850453288e-03      320.5704161 
 7.819448905e-03      320.5228741 
 7.853055654e-03       320.836879 
 7.819397407e-03      321.0137831 
 7.771610284e-03      321.1131213 
 7.791682680e-03      321.6444689 
 7.728822504e-03      321.8855282 
 7.639280404e-03      321.8488241 
 7.645928874e-03      322.4286903 
 7.572170420e-03      322.5170315 
O1 
 2.843054040e-02      322.5337713 
 2.848854380e-02      322.8548005 
 2.850676529e-02      323.0713804 
 2.862412071e-02      323.2364408 
 2.854402493e-02       322.884115 
 2.858031295e-02      322.8506906 
 2.859544040e-02      322.8696752 
 2.852791656e-02      322.6843336 
 2.865639746e-02      323.0260076 
 2.863126642e-02      322.9457945 
 2.851134462e-02      322.8413347 
 2.859754636e-02      323.3510433 
 2.838396136e-02       323.405349 
 2.803714960e-02      323.1924656 
 2.803664054e-02      323.7583506 
 2.774083997e-02       323.676936 
P1 
 1.089287094e-02      290.1625863 
 1.085660613e-02      290.4474648 
 1.081464829e-02      290.5687423 
 1.078418155e-02      290.7717445 
 1.078039060e-02      290.3452398 
 1.076500325e-02      290.3105987 
 1.074866499e-02      290.2844803 
 1.074568165e-02      290.0137743 
 1.072780211e-02      290.4242765 
 1.070622570e-02      290.2308152 
 1.067994460e-02      289.8974459 
 1.063066991e-02      290.3169998 
 1.057574992e-02      289.9396033 
 1.053816301e-02       289.210454 
 1.047172097e-02       289.554237 
 1.042873246e-02      288.9987515 
K1 
 3.164344122e-02      290.3545984 
 3.154689427e-02      290.4524725 
 3.140562054e-02      290.3133023 
 3.134035959e-02      289.9659526 
 3.132849294e-02      289.2590293 
 3.130336841e-02      288.8525489 
 3.129292259e-02      288.5774314 
 3.131042826e-02      288.2153352 
 3.127164354e-02      288.4550078 
 3.127513056e-02      287.9268714 
 3.126155947e-02      287.4195414 
 3.116648534e-02      287.5670556 
 3.108390069e-02       287.059525 
 3.102079065e-02      286.4202942 
 3.085480401e-02      286.5333987 
 3.076554348e-02       285.989028 
N2 
 2.889730375e-02       63.4937636 
 2.876148220e-02      63.57501405 
 2.856456232e-02      63.63754579 
 2.845420981e-02      63.78469378 
 2.845207624e-02      63.79438585 
 2.840658369e-02      63.87503039 
 2.837698920e-02      63.94304287 
 2.838825449e-02      63.95079437 
 2.833210873e-02      64.02940936 
 2.830679585e-02      64.11181702 
 2.829955378e-02      64.18519208 
 2.821674265e-02      64.33536468 
 2.819449538e-02      64.46671785 
 2.821390719e-02      64.54667171 
 2.812948463e-02      64.70954146 
 2.812668864e-02      64.81812388 
M2 
 1.004920457e-01        71.394892 
 9.997982967e-02      71.51913176 
 9.925826872e-02      71.63502023 
 9.880247416e-02      71.84556365 
 9.880178800e-02      71.87078992 
 9.860860667e-02      71.98784349 
 9.847564758e-02      72.08577669 
 9.852104488e-02      72.10043357 
 9.827554366e-02      72.20799043 
 9.815706880e-02      72.32944141 
 9.811158439e-02      72.43851205 
 9.774394184e-02      72.65374093 
 9.762320368e-02       72.8476929 
 9.767847344e-02      72.96536227 
 9.729966234e-02      73.20445028 
 9.725061358e-02      73.36361718 
S2 
 3.389197348e-02      45.43249573 
 3.367649319e-02      45.50175607 
 3.337366538e-02      45.57660277 
 3.317380680e-02      45.69837598 
 3.315707270e-02      45.74810354 
 3.306570174e-02      45.82651835 
 3.300121577e-02       45.8900636 
 3.300996888e-02      45.92097187 
 3.291202659e-02      45.95548351 
 3.284562105e-02      46.04699552 
 3.280520173e-02      46.14056344 
 3.264288109e-02      46.24361682 
 3.255987187e-02      46.39122478 
 3.255006210e-02      46.51077339 
 3.237602026e-02      46.62868371 
 3.232423711e-02      46.74989275 
K2 
 1.103199754e-02      30.24403252 
 1.096505330e-02      30.27464406 
 1.086557458e-02      30.31831254 
 1.080697407e-02      30.38116702 
 1.079410450e-02      30.44481842 
 1.076568607e-02       30.4969594 
 1.074629057e-02      30.53695796 
 1.074457974e-02      30.57683927 
 1.072242306e-02      30.56447047 
 1.069997214e-02      30.63370141 
 1.068329695e-02      30.71460739 
 1.064246278e-02      30.74073617 
 1.061328746e-02      30.85409266 
 1.060093361e-02      30.97592161 
 1.055620292e-02      31.01051236 
 1.053508759e-02      31.11331307 
90   	 	 ! ANGINN 
0 0 0 0   	 ! NOUTE, TOUTSE, TOUTFE, NSPOOLE 
0  	 	 ! NSTAE 
0 0 0 0  	 ! NOUTV, TOUTV, TOUTFV, NSPOOLV 
0  	 	 ! NSTAV 
1 0 100 400  	 ! NOUTGE, ... 
1 0 100 400  	 ! NOUTGV, ... 
8  	 	 ! NFREQ 
Q1 
 6.495854130e-05 1.136379 2.490904 
O1 
 6.759774407e-05 1.151734 153.723666 
P1 
 7.252294576e-05 0.994009 285.402345 
K1 
 7.292115851e-05 1.089219 80.404174 
N2 
 1.378796998e-04 0.974235 85.208263 
M2 
 1.405189028e-04 0.972866 236.429220 
S2 
 1.454441043e-04 1.001612 359.915367 
K2 
 1.458423170e-04 1.232485 341.338500 
0 0 0 0  	 ! THAS, THAF, NHAINC, FMV 
0 0 0 0   	 ! NHASE, NHASV, NHAGE, NHAGV 
0 0  	 ! NHSTAR, NHSINC 
1 0   1.000000000e-10 25  	 ! ITITER, ISLDIA, CONVCR, ITMAX 
OceanMesh2D 
Affiliation
Made by OceanMesh2D
History: None
https://github.com/CHLNDDEV/OceanMesh2D/
Comments: None
Host: Name
Metric, Datum
name@instit.edu
2008-09-05 12:00:00 UTC
! -- Begin met Control Namelist -- 
&metControl
WindDragLimit = 2.500000e-03,
DragLawString = default,
outputWindDrag = F,
invertedBarometerOnElevationBoundary = F,
/
! -- End met Control Namelist -- 
