 eastcoast_95d_ll_select.grd   ! 30 CHARACTER ALPHANUM RUN DESCRIPTION
 v33.05 iterative          ! 20 CHARACTER ALPANUMERIC RUN IDENTIFICATION
 1 1000 1 1000 1000                        ! NFOVER - NONFATAL ERROR OVERRIDE OPTION
 1                         ! NABOUT - ABREVIATED OUTPUT OPTION PARAMETER
 500                         ! NSCREEN - UNIT 6 OUTPUT OPTION PARAMETER
 0                         ! IHOT - HOT START PARAMETER
 2                         ! ICS - COORDINATE SYSTEM SELECTION PARAMETER
 0                         ! IM - MODEL TYPE (0 INDICATES STANDARD DEPTH INTEGRATED MODEL)
 2                         ! NOLIBF - BOTTOM FRICTION TERM SELECTION PARAMETER
 2                         ! NOLIFA - FINITE AMPLITUDE TERM SELECTION PARAMETER
 1                         ! NOLICA - SPATIAL DERIVATIVE PORTION OF CONV. TERM SELECTION PARAMETER
 1                         ! NOLICAT - TIME DERIVATIVE PORTION OF CONVECTIVE TERM SELECTION PARAMETER
 0                         ! NWP - VARIABLE BOTTOM FRICTION AND LATERAL VISCOSITY OPTION PARAMETER
 1                         ! NCOR - VARIABLE CORIOLIS IN SPACE OPTION PARAMETER
 0                         ! NTIP - TIDAL POTENTIAL OPTION PARAMETER
 12                         ! NWS - WIND STRESS AND BAROMETRIC PRESSURE OPTION PARAMETER
 1                         ! NRAMP - RAMP FUNCTION OPTION
 9.81                      ! G - ACCELERATION DUE TO GRAVITY - DETERMINES UNITS
 0.001                     ! TAU0 - WEIGHTING FACTOR IN GWCE
 5.                       ! DT - TIME STEP (IN SECONDS)
 0.0                       ! STATIM - STARTING TIME (IN DAYS)
 0.0                       ! REFTIM - REFERENCE TIME (IN DAYS)
 900                       ! WTIMINC - TIME INTERVAL BETWEEN STORM INPUT
 1.0                       ! RNDAY - TOTAL LENGTH OF SIMULATION (IN DAYS)
 1.0                       ! DRAMP - DURATION OF RAMP FUNCTION (IN DAYS)
 0.35 0.30 0.35            ! TIME WEIGHTING FACTORS FOR THE GWCE EQUATION
 0.02 10 10 0.05           ! H0 - MINIMUM CUTOFF DEPTH
 -79.0 35.0                ! SLAM0,SFEA0 - CENTER OF CPP PROJECTION IN DEGREES LONG/LAT
 0.003  1. 10. 0.33333     ! FFACTOR - BOTTOM FRICTION COEFFICIENT
 2.0                       ! ESL - LATERAL EDDY VISCOSITY COEFFICIENT; IGNORED IF NWP =1
 0.0                       ! CORI - CORIOLIS PARAMETER - IGNORED IF NCOR = 1
8   	 	 ! NTIF 
Q1 
0.019303  6.495854130e-05 0.695000 1.148854 2.566314   	 !  TPK, AMIGT, ETRF, FFT, FACET 
O1 
0.100818  6.759774407e-05 0.695000 1.150855 153.726599   	 !  TPK, AMIGT, ETRF, FFT, FACET 
P1 
0.047037  7.252294576e-05 0.706000 0.993877 285.404160   	 !  TPK, AMIGT, ETRF, FFT, FACET 
K1 
0.141909  7.292115851e-05 0.736000 1.089128 80.402481   	 !  TPK, AMIGT, ETRF, FFT, FACET 
N2 
0.046510  1.378796998e-04 0.693000 0.974235 85.208263   	 !  TPK, AMIGT, ETRF, FFT, FACET 
M2 
0.242922  1.405189028e-04 0.693000 0.972981 236.428271   	 !  TPK, AMIGT, ETRF, FFT, FACET 
S2 
0.113308  1.454441043e-04 0.693000 1.001634 359.915084   	 !  TPK, AMIGT, ETRF, FFT, FACET 
K2 
0.030779  1.458423170e-04 0.693000 1.231891 341.334914   	 !  TPK, AMIGT, ETRF, FFT, FACET 
8   	 	 ! NBFR 
Q1  
 6.495854130e-05 1.148854 2.566314 
O1  
 6.759774407e-05 1.150855 153.726599 
P1  
 7.252294576e-05 0.993877 285.404160 
K1  
 7.292115851e-05 1.089128 80.402481 
N2  
 1.378796998e-04 0.974235 85.208263 
M2  
 1.405189028e-04 0.972981 236.428271 
S2  
 1.454441043e-04 1.001634 359.915084 
K2  
 1.458423170e-04 1.231891 341.334914 
Q1 
 1.551169448e-02      219.0547122 
 1.547634605e-02      216.6831295 
 1.541516015e-02      215.6468473 
 1.526458015e-02      214.0520326 
 1.509478959e-02      213.0358269 
 1.492650271e-02      212.2678869 
 1.484439601e-02      211.9457357 
 1.476428174e-02      211.6967061 
 1.461596167e-02      211.3010891 
 1.449168409e-02      211.0288622 
 1.438126672e-02      210.8215134 
 1.428309116e-02      210.6608851 
 1.418727007e-02      210.5245411 
 1.409341302e-02      210.4084043 
 1.400286222e-02      210.3069767 
 1.391569654e-02      210.2183277 
 1.383091563e-02      210.1378666 
 1.367049422e-02      209.9886688 
 1.354299724e-02      209.8328559 
 1.342655759e-02      209.6405885 
 1.331447996e-02      209.4238263 
 1.320501764e-02        209.16775 
 1.312334119e-02      208.9058245 
 1.304734110e-02      208.6080485 
 1.297662707e-02      208.2896661 
 1.290724016e-02      207.9831489 
 1.282813940e-02      207.6434153 
 1.274594200e-02      207.3057028 
 1.266366247e-02      206.9781124 
 1.258386620e-02      206.6461821 
 1.250636468e-02      206.2977593 
 1.242867264e-02      205.9403819 
 1.235031723e-02      205.5806872 
 1.227223914e-02       205.214522 
 1.219470986e-02      204.8395061 
 1.211748390e-02      204.4589656 
 1.203984111e-02      204.0744167 
 1.192490735e-02      203.4959712 
 1.179709218e-02      202.8316892 
 1.163524527e-02      201.9482242 
 1.148773795e-02      201.0962675 
 1.134311766e-02      200.2218007 
 1.118174745e-02      199.1929525 
 1.102510594e-02       198.133045 
 1.088747813e-02      197.1461795 
 1.075438143e-02       196.134111 
 1.060051810e-02      194.8792749 
 1.045432505e-02      193.5881552 
 1.031279017e-02      192.2228361 
 1.018096250e-02      190.8205803 
 1.006272394e-02      189.4241735 
 9.954995119e-03      187.9959275 
 9.861052069e-03      186.5821899 
 9.778209024e-03      185.1450799 
 9.701426317e-03       183.557975 
 9.639362570e-03      181.9518751 
 9.596232547e-03      180.4654473 
 9.566954089e-03      178.9720358 
 9.553656319e-03      177.6538245 
 9.551713320e-03      176.3341439 
 9.564086924e-03      174.9405682 
 9.590988385e-03       173.558754 
 9.639191634e-03      172.0325762 
 9.708438946e-03      170.5552121 
 9.790156288e-03      169.3162479 
 9.884257655e-03      168.1068059 
 9.936624490e-03      167.5209412 
 9.993278248e-03       166.953236 
 1.005427444e-02      166.4065833 
 1.011954703e-02      165.8789792 
 1.019288787e-02      165.3371753 
 1.026964413e-02      164.8111077 
 1.034852026e-02      164.2972468 
 1.042625804e-02      163.7951567 
 1.050038884e-02      163.2990011 
 1.056084718e-02      162.8515388 
 1.059957273e-02      162.4869753 
 1.060458604e-02      162.2564314 
 1.046478474e-02      161.4457063 
 9.870610839e-03      160.6182144 
 7.597748506e-03      161.6533443 
 6.579329003e-03      162.2529483 
 5.635931279e-03      163.0920027 
 4.780132595e-03      166.0775772 
 4.021708413e-03      171.4938704 
 3.418343248e-03       178.993838 
 2.967584358e-03      188.8638162 
 2.807982192e-03      195.6220014 
 2.691088504e-03      203.1177187 
 2.620678777e-03      211.5601698 
 2.609357661e-03      220.3296765 
 2.646066032e-03      230.1209904 
 2.755814513e-03      239.8408355 
 2.956806852e-03      248.7292804 
 3.241173391e-03      256.4230268 
 3.586440816e-03       262.707958 
 4.003507569e-03      267.5271573 
 4.450307943e-03      271.4248125 
 5.019602424e-03      274.6583639 
 5.614394321e-03      277.2442342 
 6.377846119e-03      279.0958969 
 6.958717721e-03      280.1828145 
 7.517668741e-03      279.9422686 
O1 
 8.083375832e-02      237.3480697 
 8.068410585e-02      234.8195961 
 8.032124425e-02      233.7204876 
 7.944890673e-02      232.0578471 
 7.848381913e-02      231.0403544 
 7.753302102e-02      230.2944009 
 7.707384572e-02       229.987488 
 7.663625633e-02      229.7558181 
 7.583794337e-02      229.3952013 
 7.517935222e-02      229.1553084 
 7.460705786e-02      228.9753461 
 7.410920339e-02      228.8337241 
 7.363100086e-02      228.7092602 
 7.316725590e-02      228.5979162 
 7.271974955e-02      228.4943612 
 7.228623850e-02      228.3971784 
 7.186041797e-02      228.3016862 
 7.103773490e-02      228.1092323 
 7.034174773e-02      227.9235956 
 6.966123848e-02      227.7172586 
 6.898726479e-02      227.4882028 
 6.830923174e-02      227.2222173 
 6.776234707e-02      226.9539079 
 6.722389074e-02      226.6382743 
 6.670074103e-02      226.2963146 
 6.619165372e-02      225.9698644 
 6.562794175e-02      225.6094849 
 6.506274557e-02      225.2492585 
 6.450848061e-02      224.8944255 
 6.396976119e-02       224.525908 
 6.344338036e-02      224.1273312 
 6.291995804e-02      223.7115467 
 6.239731592e-02       223.291734 
 6.187829024e-02      222.8573758 
 6.136297046e-02      222.4038665 
 6.084799910e-02      221.9401571 
 6.032957517e-02      221.4691247 
 5.955861137e-02      220.7553055 
 5.869133806e-02      219.9313173 
 5.758088056e-02      218.8230768 
 5.656298833e-02      217.7380658 
 5.555806155e-02      216.6256169 
 5.443524350e-02      215.3121732 
 5.334861900e-02      213.9515867 
 5.240050337e-02      212.6775119 
 5.149260614e-02      211.3621454 
 5.045689663e-02      209.7180816 
 4.949109379e-02      208.0128274 
 4.857694956e-02        206.19728 
 4.774768813e-02      204.3234702 
 4.702786082e-02      202.4512051 
 4.639705101e-02       200.533567 
 4.587255395e-02      198.6378515 
 4.543699736e-02      196.7185071 
 4.506586282e-02      194.6151919 
 4.480320471e-02      192.5111172 
 4.465767665e-02      190.5931547 
 4.460428452e-02      188.7005882 
 4.463646710e-02      187.0623487 
 4.474074997e-02       185.458216 
 4.493525087e-02      183.8077694 
 4.521662029e-02      182.2201711 
 4.563635397e-02      180.5351099 
 4.617069832e-02      178.9888531 
 4.674909951e-02      177.7731595 
 4.741327525e-02      176.6731239 
 4.778153416e-02       176.175439 
 4.817775905e-02      175.7188558 
 4.860352614e-02      175.3056648 
 4.906112229e-02      174.9319439 
 4.958110740e-02      174.5725975 
 5.013595543e-02      174.2405089 
 5.072234560e-02      173.9196546 
 5.131972655e-02      173.5912057 
 5.190575809e-02      173.2329962 
 5.238636424e-02      172.8683318 
 5.266891935e-02      172.5482322 
 5.268484891e-02      172.3237269 
 5.180651414e-02      171.3398451 
 4.830065136e-02      169.9081953 
 3.368078696e-02      169.2900811 
 2.698495398e-02      167.4994108 
 2.076306175e-02      164.6357758 
 1.461111410e-02      162.5887045 
 8.480439067e-03      163.2248589 
 2.903875356e-03      173.5430837 
 2.722151151e-03      315.4926733 
 5.574203356e-03       323.074641 
 8.471914499e-03      325.4960161 
 1.150366555e-02      326.6179469 
 1.455650971e-02      327.2649176 
 1.790821043e-02      328.1740774 
 2.138519833e-02       328.943217 
 2.493393770e-02      329.2594753 
 2.855945563e-02      329.2684221 
 3.219767153e-02      329.1069976 
 3.584948637e-02      328.4785386 
 3.954155769e-02      327.9287974 
 4.379107860e-02       326.994329 
 4.812468719e-02      326.1837543 
 5.322971984e-02      324.8834524 
 5.704970804e-02      324.0348514 
 6.017296289e-02      322.5403562 
P1 
 3.143051859e-02      249.8339815 
 3.138603648e-02      246.9559077 
 3.125687991e-02      245.7312648 
 3.091277348e-02         243.8954 
 3.049648285e-02      242.7819118 
 3.007222166e-02      241.9665587 
 2.986739979e-02       241.630625 
 2.967808366e-02      241.3754688 
 2.934196639e-02      240.9716603 
 2.907520001e-02      240.6873032 
 2.885589033e-02      240.4545545 
 2.867532408e-02      240.2520693 
 2.850944298e-02       240.054605 
 2.835348572e-02      239.8580761 
 2.820513775e-02      239.6569164 
 2.806052035e-02      239.4496215 
 2.791711310e-02      239.2312629 
 2.762969904e-02       238.766341 
 2.735354102e-02      238.3545278 
 2.704900137e-02      237.9466878 
 2.673387914e-02      237.5228199 
 2.640175816e-02      237.0747922 
 2.610369744e-02      236.6663864 
 2.579052061e-02      236.2018212 
 2.547283600e-02      235.7046919 
 2.516821534e-02       235.221039 
 2.484390555e-02      234.6865105 
 2.453250982e-02      234.1472146 
 2.423478351e-02      233.6027335 
 2.394594159e-02      233.0313516 
 2.366311401e-02      232.4154626 
 2.338735161e-02      231.7716047 
 2.311759490e-02      231.1204273 
 2.285333375e-02        230.44542 
 2.259435173e-02      229.7409516 
 2.233925723e-02      229.0200295 
 2.208677422e-02      228.2853205 
 2.171768529e-02      227.1659392 
 2.130747010e-02      225.8681008 
 2.079174407e-02      224.1103763 
 2.033229449e-02      222.3739268 
 1.988748947e-02      220.5913028 
 1.940425713e-02      218.4841858 
 1.895375829e-02      216.3018805 
 1.857669262e-02      214.2643773 
 1.823251390e-02      212.1714906 
 1.786431838e-02      209.5782881 
 1.754923010e-02      206.9235708 
 1.728235163e-02      204.1476585 
 1.707316878e-02      201.3493301 
 1.692543899e-02      198.6279202 
 1.683252421e-02       195.922398 
 1.679258952e-02      193.3334304 
 1.679973556e-02      190.8006449 
 1.685843501e-02      188.1316771 
 1.696561111e-02      185.5750552 
 1.710243363e-02      183.3400554 
 1.727206799e-02      181.2238687 
 1.744697462e-02      179.4620375 
 1.764306998e-02      177.8009073 
 1.787290503e-02      176.1521083 
 1.812362903e-02      174.6283165 
 1.842540135e-02      173.0775412 
 1.874403928e-02      171.7184236 
 1.903692122e-02       170.697363 
 1.933336614e-02      169.8332932 
 1.948219283e-02      169.4684043 
 1.963131689e-02      169.1544618 
 1.978026185e-02      168.8965586 
 1.992920380e-02      168.6965102 
 2.008676673e-02      168.5479334 
 2.024460185e-02      168.4646486 
 2.040366770e-02      168.4453233 
 2.056133968e-02      168.4791052 
 2.071427768e-02      168.5501555 
 2.083322020e-02      168.6348458 
 2.087470091e-02      168.7132691 
 2.084302411e-02      168.7095918 
 2.073671714e-02      167.7588735 
 2.012856690e-02      164.4948959 
 1.715491192e-02      151.5981135 
 1.622993566e-02      144.3403161 
 1.561058437e-02      136.9367404 
 1.490266607e-02      129.5049632 
 1.421510586e-02      121.8345476 
 1.370346691e-02       114.366091 
 1.335355624e-02      107.0041689 
 1.316682463e-02      102.8824638 
 1.304827632e-02      98.63805688 
 1.298341947e-02      94.07342515 
 1.300062731e-02      89.45557081 
 1.314844621e-02      84.37939748 
 1.341898371e-02      79.26061514 
 1.376267044e-02      74.13664854 
 1.418410073e-02      69.02535859 
 1.468869846e-02        64.105183 
 1.522143613e-02      59.10868501 
 1.586475177e-02      54.40980958 
 1.666975963e-02      49.07857521 
 1.762097761e-02      44.16188792 
 1.875201303e-02       38.3370849 
 1.969244212e-02      34.35004177 
 2.023440664e-02      30.22750014 
K1 
 9.957561771e-02       250.276507 
 9.905039725e-02      247.3345875 
 9.843772046e-02      246.0581565 
 9.708069975e-02      244.1451693 
 9.563539558e-02      242.9949622 
 9.421456317e-02      242.1606241 
 9.353812661e-02      241.8184015 
 9.292189875e-02      241.5581689 
 9.183776734e-02      241.1439201 
 9.098868025e-02      240.8457405 
 9.029693698e-02        240.59614 
 8.973148982e-02      240.3749096 
 8.921486174e-02      240.1564865 
 8.873147457e-02      239.9368256 
 8.827233027e-02      239.7105352 
 8.782466816e-02      239.4765339 
 8.737981704e-02      239.2299175 
 8.648553522e-02      238.7060015 
 8.561728673e-02      238.2466438 
 8.465144434e-02      237.7968573 
 8.365007905e-02      237.3319741 
 8.259266450e-02      236.8446672 
 8.163689275e-02      236.4061321 
 8.062770176e-02      235.9105166 
 7.960154230e-02      235.3818402 
 7.861948577e-02      234.8661356 
 7.757753642e-02      234.2947625 
 7.658108562e-02      233.7170385 
 7.563114139e-02      233.1321741 
 7.471039471e-02      232.5185025 
 7.380908368e-02      231.8576567 
 7.293215069e-02      231.1671144 
 7.207642749e-02      230.4686649 
 7.123962354e-02       229.745223 
 7.042063823e-02      228.9905984 
 6.961518406e-02      228.2190532 
 6.881977696e-02      227.4330425 
 6.766005115e-02      226.2364643 
 6.637519104e-02      224.8506468 
 6.476690887e-02      222.9768797 
 6.334305007e-02      221.1296764 
 6.197055952e-02       219.238829 
 6.048805080e-02      217.0110906 
 5.911572579e-02      214.7134944 
 5.797596559e-02      212.5771435 
 5.694379142e-02      210.3922437 
 5.585028767e-02       207.698095 
 5.492534110e-02      204.9551797 
 5.415287583e-02      202.1027557 
 5.355671338e-02      199.2427607 
 5.314428115e-02      196.4756298 
 5.289335734e-02      193.7377672 
 5.279342635e-02      191.1310484 
 5.282213732e-02      188.5911276 
 5.298512222e-02      185.9247579 
 5.326829638e-02      183.3740328 
 5.361974782e-02      181.1447012 
 5.404530505e-02      179.0350343 
 5.447421764e-02      177.2794963 
 5.494446634e-02      175.6275024 
 5.548315130e-02       173.990195 
 5.605909337e-02      172.4836874 
 5.673855873e-02      170.9621806 
 5.744458151e-02      169.6468288 
 5.808915237e-02       168.678708 
 5.874545998e-02      167.8973844 
 5.908011453e-02      167.5876655 
 5.942194101e-02      167.3391218 
 5.977359184e-02      167.1572732 
 6.013801333e-02      167.0447502 
 6.054170726e-02      167.0030787 
 6.097161895e-02      167.0384818 
 6.144028902e-02      167.1456165 
 6.194877988e-02      167.3024243 
 6.249395945e-02      167.4777848 
 6.297672692e-02        167.61859 
 6.321513218e-02      167.6954915 
 6.316115825e-02      167.6713216 
 6.278575447e-02      166.6402562 
 6.073810136e-02       163.374202 
 5.014658550e-02      152.0455238 
 4.677489434e-02      144.5644464 
 4.450241245e-02      136.5562334 
 4.232327391e-02      127.9172866 
 4.017320124e-02      118.8177129 
 3.867777260e-02      109.6728377 
 3.788173140e-02      100.4028606 
 3.756247579e-02        95.046292 
 3.756854457e-02      89.61392851 
 3.785295100e-02      83.89508268 
 3.850430324e-02      78.27327715 
 3.971678455e-02      72.42894096 
 4.140742237e-02      66.81321823 
 4.338769281e-02       61.4281309 
 4.565254422e-02      56.27549472 
 4.818314413e-02       51.4994621 
 5.079771596e-02      46.78510113 
 5.373975104e-02      42.49146536 
 5.729578100e-02      37.75621921 
 6.126030052e-02      33.50306646 
 6.594071897e-02      28.61259705 
 6.966230453e-02      25.34986914 
 7.201925085e-02       21.9817801 
N2 
 1.111745177e-01      211.8165058 
 1.069659663e-01      208.7504232 
 1.042730235e-01      207.2950095 
 9.869507256e-02      204.9234518 
 9.337497540e-02      203.3738325 
 8.848662901e-02      202.2422126 
 8.620477110e-02      201.7689355 
 8.407530596e-02       201.397176 
 8.021227184e-02      200.7857022 
 7.708072333e-02      200.3647737 
 7.435892776e-02      200.0397502 
 7.189577661e-02      199.7785717 
 6.942426931e-02      199.5524966 
 6.694113029e-02      199.3654843 
 6.449550901e-02       199.227442 
 6.210498297e-02      199.1469471 
 5.973773880e-02       199.120172 
 5.512715082e-02      199.2248651 
 5.168423011e-02       199.526771 
 4.889118687e-02      200.0430619 
 4.621253198e-02      200.6733173 
 4.358457183e-02      201.4041926 
 4.161752580e-02       202.155511 
 3.960780896e-02      203.0631598 
 3.768616522e-02      204.1296544 
 3.599065441e-02      205.3055119 
 3.409193701e-02      206.7112466 
 3.209354690e-02      208.2739431 
 3.012173178e-02      210.0376251 
 2.813575675e-02      212.0984076 
 2.604802293e-02      214.6293969 
 2.391762965e-02      217.7443659 
 2.192285099e-02      221.4810629 
 2.004065153e-02      226.0794087 
 1.829946624e-02      231.7770239 
 1.684153084e-02      238.5653895 
 1.573633486e-02      246.3942683 
 1.482785277e-02      259.4986836 
 1.491572380e-02      274.3571788 
 1.646648590e-02      291.1218922 
 1.899353196e-02       303.246432 
 2.199332955e-02      311.1701803 
 2.564010486e-02      317.1342797 
 2.933727285e-02      321.1392855 
 3.264253737e-02       323.722934 
 3.588770722e-02      325.7169814 
 3.972928886e-02      327.6392523 
 4.346717555e-02      329.1835933 
 4.717623330e-02      330.4497448 
 5.067159639e-02      331.3787086 
 5.389244781e-02      332.0403799 
 5.697189046e-02      332.5444438 
 5.983092980e-02      332.9063496 
 6.254409235e-02       333.159104 
 6.534882755e-02      333.3236678 
 6.801087806e-02      333.4006265 
 7.036803948e-02      333.4381633 
 7.265248573e-02      333.4369342 
 7.457095700e-02      333.3893978 
 7.644271763e-02      333.2902659 
 7.833522783e-02      333.1372713 
 8.012473783e-02      332.9002378 
 8.204691675e-02      332.5351827 
 8.386974834e-02      332.0733101 
 8.536903416e-02      331.5521579 
 8.694086468e-02      330.9343616 
 8.773656969e-02      330.5809066 
 8.852766880e-02       330.192507 
 8.931220122e-02      329.7708084 
 9.009776585e-02      329.3188238 
 9.093981215e-02      328.8017621 
 9.178997913e-02      328.2517307 
 9.264724726e-02      327.6737951 
 9.350619791e-02      327.0706867 
 9.438735063e-02      326.4363427 
 9.526146012e-02       325.800075 
 9.613014361e-02      325.1897321 
 9.672844525e-02      324.8374689 
 9.799595030e-02      324.6143571 
 9.978217492e-02      324.8464218 
 1.048513031e-01      326.2854925 
 1.068403135e-01      326.6978053 
 1.086623298e-01      327.0089098 
 1.105132603e-01      327.0478891 
 1.121222143e-01      326.9954305 
 1.133321150e-01      326.8574489 
 1.141813269e-01      326.6340308 
 1.144332740e-01      326.4423024 
 1.146761542e-01      326.2504243 
 1.147308349e-01      326.0410937 
 1.147708677e-01      325.8304228 
 1.146675850e-01      325.6225657 
 1.145077575e-01      325.4150153 
 1.142326215e-01       325.193875 
 1.138283402e-01      324.9569273 
 1.133659866e-01      324.7067089 
 1.127027264e-01       324.415244 
 1.120257530e-01      324.1161698 
 1.110499327e-01       323.747435 
 1.100466542e-01      323.3637184 
 1.085076136e-01        322.95554 
 1.072631174e-01      322.6599803 
 1.056864082e-01      322.5681238 
M2 
 5.360525265e-01      231.0156221 
 5.099497431e-01      227.4362582 
 4.948088968e-01       225.817213 
 4.646654074e-01      223.1579104 
 4.369161965e-01      221.3884242 
 4.119083320e-01      220.0659475 
 4.003645519e-01      219.5074694 
 3.897137030e-01      219.0729151 
 3.706122497e-01      218.3769392 
 3.553946464e-01      217.9318146 
 3.422995162e-01      217.6138411 
 3.304871011e-01      217.3734251 
 3.186131758e-01      217.1738269 
 3.066100578e-01      217.0110975 
 2.947020780e-01      216.8911492 
 2.830049397e-01      216.8138769 
 2.713488460e-01      216.7662439 
 2.485581507e-01      216.8372282 
 2.319315369e-01      217.1911301 
 2.186810865e-01      217.7590481 
 2.060417743e-01      218.4124402 
 1.938078272e-01       219.109042 
 1.849813701e-01      219.8054644 
 1.758665963e-01      220.5690992 
 1.670814642e-01       221.418818 
 1.589907217e-01      222.3386352 
 1.501054837e-01       223.523219 
 1.407368212e-01      224.8733161 
 1.314654837e-01      226.4473859 
 1.221940896e-01      228.3239207 
 1.124538664e-01      230.6324183 
 1.024085076e-01      233.5009581 
 9.272864576e-02      237.0312799 
 8.341766022e-02      241.5596872 
 7.477928434e-02      247.4208953 
 6.746894126e-02       254.767205 
 6.191003535e-02      263.7057942 
 5.766782282e-02      279.3759911 
 5.918109943e-02      297.0914249 
 6.878732311e-02      315.5892343 
 8.270195043e-02      327.6938235 
 9.808106664e-02      335.0627933 
 1.159689100e-01      340.4131755 
 1.335352097e-01      343.9319241 
 1.488368400e-01      346.1460078 
 1.635003326e-01      347.7921924 
 1.804072840e-01      349.2950967 
 1.964476193e-01      350.4321241 
 2.121359293e-01      351.3274974 
 2.269271996e-01      351.9697865 
 2.407675443e-01      352.4444056 
 2.543133009e-01      352.8445307 
 2.672127519e-01      353.1693693 
 2.797586618e-01      353.4300205 
 2.930128596e-01      353.6316172 
 3.057459028e-01      353.7498544 
 3.170169708e-01      353.8094359 
 3.278036567e-01      353.8027253 
 3.366841932e-01      353.7259353 
 3.451265056e-01      353.5754511 
 3.534227354e-01      353.3515775 
 3.610254860e-01      353.0337428 
 3.689581675e-01      352.5759062 
 3.762874577e-01      352.0332105 
 3.822228215e-01      351.4556772 
 3.884274156e-01      350.8005151 
 3.915774360e-01      350.4367466 
 3.947225094e-01      350.0435149 
 3.978604420e-01       349.621742 
 4.010334955e-01      349.1713721 
 4.044845995e-01      348.6573914 
 4.080187638e-01      348.1095812 
 4.116280093e-01      347.5298271 
 4.152836694e-01      346.9160844 
 4.190570398e-01      346.2586695 
 4.228085816e-01      345.5839098 
 4.266240999e-01      344.9251837 
 4.299508378e-01      344.5698437 
 4.405249980e-01      344.5603455 
 4.499140012e-01      344.8869524 
 4.788841112e-01      346.8388117 
 4.900855880e-01       347.395817 
 5.002606228e-01       347.820684 
 5.102152161e-01      347.9391019 
 5.187319893e-01      347.9388785 
 5.251637044e-01      347.8443245 
 5.297638422e-01      347.6656125 
 5.311906567e-01      347.5055395 
 5.325761195e-01      347.3461032 
 5.330754953e-01        347.17829 
 5.335065662e-01      347.0102866 
 5.333030371e-01      346.8584984 
 5.328489971e-01      346.7126651 
 5.318331451e-01      346.5548067 
 5.301867147e-01      346.3830628 
 5.282693721e-01      346.1991601 
 5.254087230e-01      345.9759153 
 5.224868163e-01      345.7466752 
 5.182140828e-01      345.4598114 
 5.138162058e-01       345.161088 
 5.071292724e-01      344.8591746 
 5.017232799e-01      344.6461814 
 4.948275848e-01      344.6248754 
S2 
 1.804583554e-01      253.1487483 
 1.725476270e-01      249.3686988 
 1.671374851e-01      247.9335064 
 1.562880342e-01      245.6258871 
 1.464407009e-01      244.0751461 
 1.376695728e-01      242.8538554 
 1.336405473e-01      242.3220891 
 1.299268640e-01       241.908704 
 1.232558668e-01      241.2572031 
 1.179384027e-01      240.8694244 
 1.133739790e-01      240.6318878 
 1.092756945e-01      240.4841347 
 1.051865907e-01      240.3913309 
 1.010969232e-01      240.3526035 
 9.708978597e-02      240.3751503 
 9.319629137e-02      240.4629551 
 8.936360799e-02      240.6127978 
 8.196746956e-02       241.085551 
 7.654399793e-02      241.6452092 
 7.225889454e-02      242.3004741 
 6.821147405e-02      242.9792903 
 6.430766447e-02      243.6424249 
 6.144808869e-02      244.1580963 
 5.853234242e-02      244.5939263 
 5.579300982e-02      245.0129552 
 5.344341659e-02      245.5061013 
 5.083934508e-02       246.103022 
 4.810222661e-02      246.7289193 
 4.541173319e-02      247.4597804 
 4.270978308e-02      248.3116961 
 3.984382769e-02      249.2913595 
 3.686020605e-02      250.5092884 
 3.399710440e-02       252.060272 
 3.119174849e-02      254.0185896 
 2.842720651e-02      256.5071554 
 2.585206917e-02      259.6410642 
 2.350844236e-02      263.5750692 
 2.049181729e-02      271.2051674 
 1.799557227e-02      282.3983306 
 1.632207495e-02      300.7372295 
 1.655275964e-02      319.7452795 
 1.842415532e-02      335.0281604 
 2.167790885e-02      347.4056351 
 2.549281266e-02      355.7795794 
 2.912679257e-02      1.094473804 
 3.280667832e-02      5.089732564 
 3.725388255e-02      8.818006879 
 4.165326080e-02      11.73530307 
 4.609646269e-02      14.12530864 
 5.036987338e-02       15.9660358 
 5.440663303e-02      17.40200692 
 5.837966019e-02       18.6196686 
 6.216250282e-02      19.61284113 
 6.582871054e-02      20.42952155 
 6.967016115e-02      21.11929926 
 7.332867510e-02      21.62687968 
 7.656488165e-02      21.98651123 
 7.965200951e-02      22.23115773 
 8.218443299e-02      22.34922036 
 8.456369319e-02       22.3633442 
 8.689626512e-02      22.31281699 
 8.899257045e-02      22.16177012 
 9.112617309e-02      21.89995395 
 9.305933009e-02      21.57707416 
 9.460367263e-02       21.2482921 
 9.615048352e-02      20.84875474 
 9.691175367e-02      20.62514022 
 9.766023036e-02      20.38456646 
 9.840302141e-02      20.12959426 
 9.914515359e-02      19.86274857 
 9.993698634e-02      19.56271713 
 1.007333233e-01      19.24723438 
 1.015277223e-01      18.91699194 
 1.023095299e-01      18.57150191 
 1.030871321e-01      18.20803915 
 1.038245379e-01      17.84615893 
 1.045336661e-01      17.52393762 
 1.050333105e-01      17.37926954 
 1.063225130e-01      17.47453633 
 1.087545219e-01      18.05295882 
 1.158579416e-01      20.32185111 
 1.187110060e-01      21.07450953 
 1.213459686e-01      21.69614147 
 1.240538792e-01      22.09741349 
 1.264706280e-01      22.42373596 
 1.283573900e-01      22.66243247 
 1.297640501e-01      22.83066986 
 1.302505093e-01      22.88590559 
 1.307272598e-01      22.94233859 
 1.309947791e-01      23.01319941 
 1.312463742e-01      23.08588695 
 1.313694301e-01      23.20263913 
 1.314423675e-01      23.33696009 
 1.313916898e-01      23.47711135 
 1.312022333e-01      23.62427655 
 1.309481932e-01      23.76995476 
 1.304681464e-01       23.9077739 
 1.299731786e-01      24.04729484 
 1.291713716e-01      24.19456634 
 1.283393421e-01      24.34512564 
 1.271238414e-01      24.61084495 
 1.261570756e-01      24.83932382 
 1.251791101e-01      25.23905543 
K2 
 4.983220652e-02      247.7335119 
 4.762043928e-02      244.6587293 
 4.619781848e-02      243.2132333 
 4.330162131e-02      240.8449494 
 4.061872483e-02       239.291577 
 3.820255196e-02      238.1390298 
 3.708817430e-02      237.6499863 
 3.606331295e-02      237.2639712 
 3.422726622e-02       236.623603 
 3.276979901e-02      236.1810312 
 3.152790306e-02      235.8482077 
 3.042013348e-02      235.5918308 