 Idealized inlet V20051108             ! 30 CHARACTER ALPHANUMERIC RUN DESCRIPTION
 ADCIRC V45.08                         ! 20 CHARACTER ALPANUMERIC RUN IDENTIFICATION
 1                                     ! NFOVER - NONFATAL ERROR OVERRIDE OPTION
 2                                     ! NABOUT - ABREVIATED OUTPUT OPTION PARAMETER
 100                                     ! NSCREEN - SCREEN OUTPUT (0=NO SCREEN OUTPUT, 1=SCREEN OUTPUT)
 0                                     ! IHOT - HOT START PARAM (0=COLD START, 1=HOT START)
 2                                     ! ICS - POLAR COORDINATE OPTION (1=CART COORDS, 2=POLAR COORDS)
 0                                     ! IM - MODEL TYPE (0=2DDI, 1=3DL VS, 2=3DL DSS)
 1                                     ! NOLIBF - nonlinear bottom friction
 1                                     ! NOLIFA - nonlinear finite amplitude
 1                                     ! NOLICA - nonlinear advec (spat grads)
 1                                     ! NOLICAT - nonlinear advec (time derivs)
 0                                     ! NWP - VARIABLE BOTTOM FRICTION AND LATERAL VISCOSITY OPTION PARAMETER
 0                                     ! NCOR - VARIABLE CORIOLIS IN SPACE OPTION PARAMETER
 0                                     ! NTIP - TIDAL POTENTIAL OPTION PARAMETER
 0                                     ! NWS - WIND STRESS AND BAROMETRIC PRESSURE OPTION PARAMETER
 0                                     ! NRAMP - RAMP FUNCTION OPTION (0=NO, 1=YES)
 9.81                                  ! G - ACCELERATION DUE TO GRAVITY - DETERMINES UNITS
 0.02                                  ! TAU0 - WEIGHTING FACTOR IN GWCE
 3.0                                    ! DT - TIME STEP (IN SECONDS)
 0.0                                   ! STATIM - STARTING TIME
 0.0                                   ! REFTIME - STARTING REFERENCE TIME (IN DAYS)
 1.0                                    ! RNDAY - TOTAL LENGTH OF SIMULATION (IN DAYS)
 2.0                                   ! DRAMP - TIME CONSTANT FOR RAMP FUNCTION
 0.35 0.30 0.35                        ! TIME WEIGHTING FACTORS FOR THE GWCE EQUATION
 2.0                                   ! H0 - MIMINMUM CUTOFF DEPTH
 -76.67  34.69                         ! SLAM0, SFEA0 - LONG. AND LAT. WHERE CPP IS CENTERED
 0.0025                                ! FFACTOR - BOTTOM FRICTION COEFFICIENT; IGNORED IF NWP = 1
 4.0                                   ! ESL - LATERAL EDDY VISCOSITY COEFFICIENT; IGNORED IF NWP =1
 8.29052E-05                           ! CORI - CORIOLIS PARAMETER - IGNORED IF NCOR = 1
 0                                     ! NUMBER OF TIDAL POTENTIAL CONSTITUENTS BEING FORCED
 1                                     ! NBFR - TOTAL NUMBER OF FORCING FREQUENCIES ON OPEN BOUNDARIES
 M2                                    ! BOUNTAG - ALPHA NUMERIC DESCRIPTOR
 0.000140525705      1.000  0.000      ! FREQUENCY, NODAL FACTOR, EQUILIBRIUM ARGUMENT (DEG)
   M2                 ! ALPHANUMERIC DESCRIPTION OF OPEN BOUNDARY FORCING DATA SET WHICH FOLLOWS 
   0.1500000000000000       0.0000000000000000
   0.1500000000000000       0.0000000000000000
   0.1500000000000000       0.0000000000000000
   0.1500000000000000       0.0000000000000000
   0.1500000000000000       0.0000000000000000
   0.1500000000000000       0.0000000000000000
   0.1500000000000000       0.0000000000000000
   0.1500000000000000       0.0000000000000000
   0.1500000000000000       0.0000000000000000
   0.1500000000000000       0.0000000000000000
   0.1500000000000000       0.0000000000000000
   0.1500000000000000       0.0000000000000000
   0.1500000000000000       0.0000000000000000
   0.1500000000000000       0.0000000000000000
   0.1500000000000000       0.0000000000000000
   0.1500000000000000       0.0000000000000000
   0.1500000000000000       0.0000000000000000
   0.1500000000000000       0.0000000000000000
   0.1500000000000000       0.0000000000000000
   0.1500000000000000       0.0000000000000000
   0.1500000000000000       0.0000000000000000
   0.1500000000000000       0.0000000000000000
   0.1500000000000000       0.0000000000000000
   0.1500000000000000       0.0000000000000000
   0.1500000000000000       0.0000000000000000
   0.1500000000000000       0.0000000000000000
   0.1500000000000000       0.0000000000000000
   0.1500000000000000       0.0000000000000000
   0.1500000000000000       0.0000000000000000
   0.1500000000000000       0.0000000000000000
   0.1500000000000000       0.0000000000000000
   0.1500000000000000       0.0000000000000000
   0.1500000000000000       0.0000000000000000
   0.1500000000000000       0.0000000000000000
   0.1500000000000000       0.0000000000000000
   0.1500000000000000       0.0000000000000000
   0.1500000000000000       0.0000000000000000
   0.1500000000000000       0.0000000000000000
   0.1500000000000000       0.0000000000000000
   0.1500000000000000       0.0000000000000000
   0.1500000000000000       0.0000000000000000
   0.1500000000000000       0.0000000000000000
   0.1500000000000000       0.0000000000000000
   0.1500000000000000       0.0000000000000000
   0.1500000000000000       0.0000000000000000
   0.1500000000000000       0.0000000000000000
   0.1500000000000000       0.0000000000000000
   0.1500000000000000       0.0000000000000000
   0.1500000000000000       0.0000000000000000
   0.1500000000000000       0.0000000000000000
   0.1500000000000000       0.0000000000000000
100.0                      ! ANGINN : INNER ANGLE THRESHOLD
1 0.0  5.175 100          ! NOUTE,TOUTSE,TOUTFE,NSPOOLE:ELEV STATION OUTPUT INFO (UNIT  61)
4                          ! TOTAL NUMBER OF ELEVATION RECORDING STATIONS
-359.95 0.1
-359.6 0.02
-359.75 0.16
-359.78 0.22
0 0.0  5.175 50000          ! NOUTE,TOUTSE,TOUTFE,NSPOOLE:VEL STATION OUTPUT INFO (UNIT  62)
4                         ! TOTAL NUMBER OF VELOCITY RECORDING STATIONS
-359.95 0.1
-359.6 0.02
-359.75 0.16
-359.78 0.22
 1  0.0  3.6225   500    ! NOUTGE,TOUTSGE,TOUTFGE,NSPOOLGE : GLOBAL ELEV OUTPUT (UNIT  63)
 0  0.0  3.6225   1    ! NOUTGV,TOUTSGV,TOUTFGV,NSPOOLGV : GLOBAL VEL  OUTPUT (UNIT  64)
  6                        ! NHARFR - # FREQS IN HAR ANAL
 STEADY                    ! HAFNAM - ALPHA DESCRIPTOR FOR CONSTITUENT NAME
 0.000000000000000 1.0 0.0 ! FREQUENCY, NODAL FACTOR, EQUILIBRIUM ARGUMENT (DEG)
 M2
 0.000140518902509   1.000   0.000
 M4
 0.000281037834166   1.000   0.000
 M6
 0.000421556751249   1.000   0.000
 M8
 0.000562075610036   1.000   0.000
 M10
 0.000702594512545   1.000   0.000
 3.105   3.6225  128  0.0000000   ! THAS, THAF, NHAINC,FMV
 1 1 1 1                    ! NHASE,NHASV,NHAGE,NHAGV
 0  14336                    ! NHSTAR,NHSINC
 1  0  1.0e-10  50          ! ITITER,ISLDIA,CONVCR,ITMAX
 
