OceanMesh2D 
Run_001
1         	 ! NFOVER 
0        	 ! NABOUT 
100        	 ! NSCREEN 
0        	 ! IHOT 
2        	 ! ICS 
511112        	 ! IM 
1        	 ! NOLIBF 
2        	 ! NOLIFA 
1        	 ! NOLICA 
1        	 ! NOLICAT 
0        	 ! NWP 
1   	 	 ! NCOR 
1   	 	 ! NTIP 
12   	 	 ! NWS 
1   	 	 ! NRAMP 
9.810000   	 ! G  
-1   	 	 ! TAU0 
8.0  	 	 ! DTDP 
0  	 	 ! STATIM 
0  	 	 ! REFTIM 
 900                       ! WTIMINC - TIME INTERVAL BETWEEN STORM INPUT
2.4   	 	 ! RNDY 
1  	 	 ! DRAMP 
0 1 0  	 ! A00, B00, C00 
0.1 0 0 0.01    	 ! H0, 2*dummy, VELMIN 
-75.590869 25.259577  	 	 ! SLAM0, SFEA0 
0.002500     	 ! CF 
-0.050000     	 ! ELSM 
0.000000   	 ! CORI 
8   	 	 ! NTIF 
Q1 
0.019303  6.495854130e-05 0.695000 1.143968 2.536977   	 !  TPK, AMIGT, ETRF, FFT, FACET 
O1 
0.100818  6.759774407e-05 0.695000 1.151199 153.725450   	 !  TPK, AMIGT, ETRF, FFT, FACET 
P1 
0.047037  7.252294576e-05 0.706000 0.993928 285.403449   	 !  TPK, AMIGT, ETRF, FFT, FACET 
K1 
0.141909  7.292115851e-05 0.736000 1.089163 80.403144   	 !  TPK, AMIGT, ETRF, FFT, FACET 
N2 
0.046510  1.378796998e-04 0.693000 0.974235 85.208263   	 !  TPK, AMIGT, ETRF, FFT, FACET 
M2 
0.242922  1.405189028e-04 0.693000 0.972933 236.428668   	 !  TPK, AMIGT, ETRF, FFT, FACET 
S2 
0.113308  1.454441043e-04 0.693000 1.001624 359.915203   	 !  TPK, AMIGT, ETRF, FFT, FACET 
K2 
0.030779  1.458423170e-04 0.693000 1.232140 341.336416   	 !  TPK, AMIGT, ETRF, FFT, FACET 
8   	 	 ! NBFR 
Q1  
 6.495854130e-05 1.143968 2.536977 
O1  
 6.759774407e-05 1.151199 153.725450 
P1  
 7.252294576e-05 0.993928 285.403449 
K1  
 7.292115851e-05 1.089163 80.403144 
N2  
 1.378796998e-04 0.974235 85.208263 
M2  
 1.405189028e-04 0.972933 236.428668 
S2  
 1.454441043e-04 1.001624 359.915203 
K2  
 1.458423170e-04 1.232140 341.336416 
Q1 
 5.486769346e-03      275.4878652 
 4.621574242e-03      270.7596693 
 4.029343265e-03      265.7113068 
 3.524208776e-03      259.1936198 
 3.082680164e-03      248.7845342 
 2.803934964e-03      236.0853674 
 2.700728782e-03      218.4969849 
 2.748904274e-03      206.1840476 
 2.858587277e-03      197.8525611 
 3.023584292e-03      190.4243674 
 3.324950936e-03      182.5584887 
 3.656284549e-03      176.9946567 
 4.129532567e-03      171.5466077 
 4.736498086e-03      166.6090176 
 5.347976173e-03      164.1861351 
 6.479806563e-03      162.1424949 
 7.612290436e-03      161.5350904 
 9.431239655e-03      160.4884774 
 1.016584333e-02      160.9618256 
 1.054108651e-02       161.811674 
 1.059268436e-02      162.1314776 
 1.060177196e-02      162.3111132 
 1.059730183e-02      162.4134063 
 1.058611742e-02      162.5322339 
 1.057722099e-02      162.6123847 
 1.056537274e-02      162.7106313 
 1.054476245e-02      162.8709869 
 1.052304653e-02      163.0310853 
 1.049877436e-02      163.2009109 
 1.046015014e-02      163.4625228 
 1.043982835e-02      163.5963473 
 1.041037095e-02      163.7873439 
 1.038886306e-02      163.9263321 
 1.035329886e-02      164.1557932 
 1.033691142e-02      164.2611378 
 1.031754574e-02      164.3867887 
 1.029814853e-02      164.5123807 
 1.025928256e-02      164.7674086 
 1.023497999e-02      164.9313555 
 1.020224648e-02      165.1551518 
 1.017846964e-02      165.3221004 
 1.013924200e-02      165.6077549 
 1.010616963e-02      165.8585193 
 1.008636397e-02      166.0139198 
 1.006621884e-02      166.1721878 
 1.005473148e-02      166.2698714 
 1.003571255e-02      166.4322573 
 1.001728409e-02      166.5922788 
 9.996829817e-03      166.7770979 
 9.968056303e-03      167.0491135 
 9.950822619e-03      167.2179765 
 9.936304559e-03      167.3653318 
 9.919900552e-03      167.5386876 
 9.903618479e-03      167.7139587 
 9.890205150e-03       167.865378 
 9.872921382e-03      168.0648468 
 9.859560331e-03      168.2214049 
 9.848592797e-03      168.3528825 
 9.833972419e-03      168.5328862 
 9.819921766e-03      168.7140534 
 9.804130042e-03      168.9209036 
 9.794288029e-03      169.0567377 
 9.784340985e-03      169.1933582 
 9.772825366e-03      169.3532203 
 9.751721088e-03      169.6538443 
 9.740687091e-03      169.8120631 
 9.728447614e-03       169.997262 
 9.716415889e-03      170.1839029 
 9.702295593e-03      170.4195398 
 9.680143916e-03      170.8326494 
 9.670761248e-03       171.026047 
 9.658988305e-03      171.2727641 
 9.644185648e-03       171.588728 
 9.631096816e-03      171.8877494 
 9.623314440e-03      172.0855846 
 9.615948620e-03      172.2833915 
 9.615582061e-03      172.4890812 
 9.602011445e-03      172.6885589 
 9.594766987e-03      172.9184266 
 9.589794518e-03      173.0957274 
 9.584817994e-03      173.2755559 
 9.579247717e-03      173.4818923 
 9.575017225e-03      173.6601129 
 9.570912335e-03      173.8388857 
 9.565911589e-03      174.0737419 
 9.561814433e-03      174.2795381 
 9.558433341e-03      174.4598352 
 9.555747444e-03      174.6150134 
 9.553175080e-03      174.7692789 
 9.550558040e-03      174.9509872 
 9.547733683e-03      175.1585896 
 9.545513363e-03      175.3414142 
 9.543645433e-03      175.4955845 
 9.542048540e-03      175.7050873 
 9.539999003e-03      176.0181839 
 9.538862081e-03      176.2550745 
 9.538135622e-03      176.4357491 
 9.538018089e-03      176.8064156 
 9.538014832e-03      177.0171397 
 9.538449083e-03      177.1732929 
 9.539117876e-03       177.331604 
 9.539889154e-03      177.5173152 
 9.540442988e-03       177.645575 
 9.542161109e-03      177.8841349 
 9.543870303e-03      178.0935185 
 9.545672634e-03      178.3052489 
 9.547296866e-03      178.4600549 
 9.549582362e-03      178.6441611 
 9.552382386e-03       178.854471 
 9.555846291e-03      179.0922707 
 9.559392335e-03      179.3019114 
 9.566095515e-03      179.6708795 
 9.570309142e-03      179.8808377 
 9.574216114e-03      180.0657538 
 9.577547892e-03      180.2203041 
 9.584630813e-03      180.5110601 
 9.589996020e-03      180.7198827 
 9.595620083e-03      180.9286407 
 9.602218968e-03      181.1638131 
 9.609083399e-03      181.3982599 
 9.617227961e-03      181.6606425 
 9.624043043e-03      181.8703284 
 9.629267129e-03      182.0239473 
 9.641287054e-03      182.3633151 
 9.649925574e-03      182.5967215 
 9.659988505e-03       182.857343 
 9.670235890e-03      183.1146806 
 9.683490728e-03      183.4275673 
 9.699579925e-03      183.6551643 
 9.701616115e-03       183.839191 
 9.715957712e-03      184.1468507 
 9.725825495e-03      184.3539495 
 9.734398869e-03      184.5307641 
 9.746224631e-03      184.7632904 
 9.759484588e-03       185.018673 
 9.768895727e-03      185.1947933 
 9.782678864e-03      185.4480648 
 9.795596334e-03      185.6778425 
 9.809939514e-03      185.9293706 
 9.824912223e-03        186.18293 
 9.836974728e-03      186.3832371 
 9.849217666e-03      186.5836183 
 9.866732651e-03      186.8611746 
 9.881175685e-03      187.0830504 
 9.895501707e-03      187.2913087 
 9.911031977e-03      187.5322024 
 9.922803802e-03      187.7028788 
 9.941977488e-03      187.9755146 
 9.966688717e-03      188.3188526 
 9.981123223e-03      188.5152314 
 1.000141387e-02      188.7842557 
 1.001621240e-02      188.9769711 
 1.003335749e-02      189.1962887 
 1.006424709e-02      189.5815095 
 1.009984921e-02      190.0142992 
 1.011605690e-02      190.2050171 
 1.012839565e-02      190.3462633 
 1.014050207e-02      190.4878827 
 1.016574474e-02      190.7728342 
 1.018301844e-02      190.9479112 
 1.019955446e-02      191.1476491 
 1.022783001e-02      191.4519364 
 1.024759088e-02      191.6610242 
 1.026759990e-02      191.8712436 
 1.028327063e-02      192.0303308 
 1.029919843e-02       192.192528 
 1.031515766e-02      192.3532767 
 1.032873222e-02      192.4885884 
 1.034986442e-02       192.695491 
 1.036602360e-02      192.8529586 
 1.039456335e-02      193.1261396 
 1.040885421e-02      193.2603446 
 1.042321102e-02      193.3946251 
 1.043776280e-02      193.5296576 
 1.045210310e-02      193.6621347 
 1.047190608e-02      193.8420514 
 1.048906357e-02      193.9966255 
 1.050396716e-02       194.128571 
 1.052142921e-02      194.2823419 
 1.055927993e-02      194.6116528 
 1.057965132e-02      194.7856621 
 1.060021308e-02      194.9594384 
 1.063391878e-02      195.2402599 
 1.065755544e-02       195.435283 
 1.067938139e-02       195.589976 
 1.069975682e-02      195.7753547 
 1.072389542e-02      195.9675073 
 1.074521552e-02      196.1364327 
 1.076427654e-02      196.2830326 
 1.078329646e-02      196.4293576 
 1.080244709e-02      196.5761924 
 1.082160293e-02      196.7216938 
 1.084652199e-02      196.9081319 
 1.087436687e-02      197.1153581 
 1.090221608e-02      197.3192438 
 1.093060857e-02      197.5252586 
 1.095322468e-02      197.6875218 
 1.097312578e-02      197.8286031 
 1.099611213e-02      197.9908197 
 1.101612673e-02      198.1298848 
 1.104815577e-02      198.3506137 
 1.108612517e-02      198.6094467 
 1.112418657e-02      198.8643915 
 1.115085330e-02      199.0420244 
 1.117145760e-02      199.1777265 
 1.119533930e-02      199.3336553 
 1.121615934e-02      199.4684902 
 1.124340324e-02       199.642816 
 1.126834196e-02      199.7786455 
 1.128869363e-02      199.9292927 
 1.132534476e-02      200.1577709 
 1.134971286e-02      200.3079316 
 1.137418933e-02      200.4585739 
 1.142082415e-02      200.7396325 
 1.144556912e-02      200.8876096 
 1.146700740e-02      201.0151973 
 1.149239243e-02       201.163395 
 1.151728599e-02      201.3089007 
 1.155489977e-02      201.5276297 
 1.158655524e-02      201.7083046 
 1.161849669e-02      201.8894634 
 1.164397499e-02      202.0317412 
 1.166965511e-02      202.1744012 
 1.169200473e-02      202.2971502 
 1.171805722e-02      202.4392822 
 1.174075445e-02      202.5616128 
 1.175985448e-02      202.6643269 
 1.178621485e-02      202.8046872 
 1.180576502e-02         202.9072 
 1.182529986e-02      203.0099943 
 1.185159140e-02      203.1466483 
 1.187783236e-02      203.2822268 
 1.192428019e-02      203.5194615 
 1.195379922e-02      203.6690629 
 1.198386526e-02      203.8201883 
 1.201396013e-02      203.9690637 
 1.204367374e-02      204.1166733 
 1.208359663e-02      204.3141465 
 1.211009214e-02      204.4431181 
 1.215348550e-02      204.6551045 
 1.217982520e-02      204.7840475 
 1.220283264e-02      204.8960644 
 1.222603540e-02      205.0088153 
 1.224575313e-02      205.1029975 
 1.227256812e-02      205.2300123 
 1.230619933e-02      205.3871007 
 1.234630427e-02      205.5731247 
 1.239708963e-02      205.8026378 
 1.242363102e-02      205.9253681 
 1.245007917e-02      206.0458414 
 1.248032795e-02       206.182131 
 1.251354760e-02      206.3348502 
 1.253967226e-02      206.4533418 
 1.258322078e-02      206.6444051 
 1.261715779e-02      206.7875984 
 1.265150207e-02      206.9282378 
 1.268301681e-02       207.053016 
 1.271836395e-02      207.1924147 
 1.274996763e-02      207.3184441 
 1.277455623e-02      207.4168558 
 1.282061410e-02      207.6020465 
 1.285184164e-02      207.7321468 
 1.288268526e-02      207.8604025 
 1.290609214e-02      207.9574418 
 1.293249844e-02      208.0711965 
 1.296338178e-02      208.2061293 
 1.298988346e-02      208.3176796 
 1.301646172e-02      208.4392979 
 1.304375323e-02      208.5594981 
 1.308271074e-02      208.7236655 
 1.311512681e-02      208.8516012 
 1.315231778e-02      208.9837901 
 1.318364238e-02      209.0840006 
 1.321579206e-02      209.1792299 
 1.329057103e-02      209.3549438 
 1.332595468e-02      209.4298265 
 1.337481752e-02      209.5259708 
 1.341975740e-02      209.6100758 
 1.349935662e-02      209.7468865 
 1.356467589e-02      209.8449184 
 1.360448807e-02      209.8984769 
 1.366123453e-02      209.9651643 
 1.370863690e-02      210.0197468 
 1.375826970e-02      210.0624308 
 1.379132030e-02      210.0940759 
 1.386489584e-02      210.1668647 
 1.395265416e-02      210.2581278 
 1.400022281e-02      210.3097959 
 1.406781752e-02      210.3873335 
 1.411746050e-02      210.4468597 
 1.417510021e-02      210.5191231 
 1.423961525e-02      210.6076696 
 1.427806976e-02      210.6650351 
 1.431682196e-02      210.7252062 
 1.436983389e-02      210.8138425 
 1.442290695e-02      210.9074352 
 1.449913353e-02      211.0522186 
 1.456825455e-02      211.1951924 
 1.462665140e-02      211.3258447 
 1.472754625e-02      211.5771008 
 1.479679566e-02      211.7817985 
 1.488040556e-02      212.0876376 
 1.496448364e-02      212.4247194 
 1.507346936e-02      212.9455654 
 1.517209582e-02       213.484953 
 1.523637686e-02       213.865457 
O1 
 4.667239885e-02      325.3496203 
 4.018150165e-02      326.3592762 
 3.534375215e-02      327.0449507 
 3.074407367e-02      327.5814006 
 2.542743650e-02      327.3072783 
 2.030263587e-02      326.4249251 
 1.406231226e-02      323.9203535 
 9.633423961e-03      321.4538649 
 6.460595848e-03       317.426262 
 3.433565151e-03      305.5420945 
 1.852503001e-03      212.4303021 
 4.792805634e-03      174.5729599 
 9.040522334e-03      166.4808998 
 1.412310562e-02      163.5230103 
 1.856474419e-02      164.6693592 
 2.629688000e-02       167.134245 
 3.374826371e-02      169.3259994 
 4.551440901e-02      169.5006703 
 5.003547559e-02        170.58447 
 5.226804695e-02      171.8239311 
 5.260124082e-02      172.2006213 
 5.268244078e-02      172.3865511 
 5.266602295e-02      172.4824202 
 5.260025845e-02      172.5870958 
 5.253977073e-02      172.6562446 
 5.245566785e-02      172.7403436 
 5.230070777e-02      172.8760882 
 5.213013647e-02       173.007555 
 5.193946205e-02      173.1423167 
 5.163432823e-02      173.3396125 
 5.147537135e-02      173.4349992 
 5.124603064e-02      173.5673318 
 5.107958229e-02      173.6609599 
 5.080767585e-02      173.8104575 
 5.068353563e-02      173.8776341 
 5.053776337e-02      173.9571779 
 5.039303471e-02      174.0360844 
 5.010593861e-02      174.1956152 
 4.992864589e-02      174.2985576 
 4.969190593e-02      174.4402899 
 4.952133048e-02      174.5475593 
 4.924172379e-02      174.7356531 
 4.900778489e-02      174.9051484 
 4.886845640e-02      175.0130747 
 4.872806244e-02      175.1245963 
 4.864688006e-02      175.1954692 
 4.851287857e-02      175.3141078 
 4.838461440e-02      175.4332213 
 4.824135750e-02      175.5735822 
 4.803978688e-02      175.7856348 
 4.791930457e-02       175.920174 
 4.781728326e-02      176.0393376 
 4.770175464e-02      176.1822717 
 4.758739402e-02      176.3288495 
 4.749258947e-02      176.4575779 
 4.737045973e-02      176.6293552 
 4.727639874e-02      176.7659734 
 4.719934181e-02      176.8823564 
 4.709601964e-02      177.0429024 
 4.699620210e-02      177.2076149 
 4.688441341e-02      177.3974341 
 4.681394281e-02      177.5231688 
 4.674349958e-02       177.651243 
 4.666184916e-02      177.8019531 
 4.651277427e-02      178.0903239 
 4.643547761e-02      178.2441672 
 4.634839334e-02      178.4257703 
 4.626249410e-02      178.6105554 
 4.616082825e-02      178.8462634 
 4.599593227e-02      179.2654002 
 4.592372968e-02      179.4641845 
 4.583288328e-02      179.7209837 
 4.571877771e-02      180.0540854 
 4.561582847e-02      180.3733341 
 4.555231387e-02      180.5864007 
 4.549151077e-02      180.8004166 
 4.546399440e-02      181.0279876 
 4.537281797e-02      181.2437049 
 4.530974358e-02      181.4975721 
 4.526419076e-02      181.6946072 
 4.521839430e-02      181.8950714 
 4.516699427e-02      182.1269368 
 4.512573871e-02      182.3282278 
 4.508541663e-02      182.5310517 
 4.503467383e-02      182.7989736 
 4.499192895e-02      183.0348817 
 4.495590452e-02      183.2425743 
 4.492610574e-02      183.4221242 
 4.489704812e-02      183.6013696 
 4.486544701e-02      183.8130686 
 4.483086045e-02      184.0554827 
 4.480180242e-02      184.2703905 
 4.477746293e-02      184.4520073 
 4.474937902e-02      184.6998032 
 4.470915722e-02      185.0726024 
 4.468129295e-02      185.3561934 
 4.466124752e-02        185.57293 
 4.462721425e-02      186.0207658 
 4.460869560e-02      186.2764589 
 4.459735793e-02      186.4666671 
 4.458706292e-02      186.6602593 
 4.457521942e-02      186.8876586 
 4.456742015e-02      187.0449046 
 4.455699682e-02      187.3388189 
 4.454944972e-02      187.5979497 
 4.454214075e-02      187.8606027 
 4.453861287e-02      188.0532207 
 4.453630646e-02      188.2830789 
 4.453503064e-02       188.546159 
 4.453557245e-02      188.8443648 
 4.453911280e-02      189.1082956 
 4.454858740e-02      189.5744031 
 4.455656585e-02      189.8407399 
 4.456492885e-02      190.0758533 
 4.457213369e-02      190.2728257 
 4.459093466e-02      190.6445931 
 4.460646084e-02      190.9123683 
 4.462363331e-02      191.1806066 
 4.464503539e-02        191.48356 
 4.466839331e-02      191.7863705 
 4.469733061e-02      192.1263237 
 4.472236745e-02      192.3985933 
 4.474222914e-02       192.598484 
 4.478933096e-02       193.041229 
 4.482464514e-02      193.3463017 
 4.486701879e-02      193.6879569 
 4.491108261e-02      194.0257982 
 4.496991685e-02       194.437621 
 4.505028077e-02      194.7406893 
 4.505249620e-02      194.9809015 
 4.511966237e-02      195.3881397 
 4.516679120e-02      195.6625397 
 4.520817257e-02      195.8970819 
 4.526629394e-02      196.2057681 
 4.533241581e-02      196.5454195 
 4.537993568e-02      196.7799494 
 4.545014060e-02      197.1174969 
 4.551694548e-02      197.4242776 
 4.559169384e-02      197.7603202 
 4.567075141e-02      198.0995208 
 4.573525120e-02      198.3678781 
 4.580118940e-02      198.6360788 
 4.589655698e-02      199.0079557 
 4.597608587e-02      199.3054696 
 4.605589884e-02      199.5849817 
 4.614256347e-02      199.9081341 
 4.620894433e-02      200.1373598 
 4.631764246e-02      200.5036849 
 4.645934564e-02      200.9650981 
 4.654299740e-02      201.2291363 
 4.666125091e-02      201.5905188 
 4.674805389e-02      201.8494381 
 4.684921217e-02      202.1441567 
 4.703306264e-02      202.6615634 
 4.724782171e-02      203.2427607 
 4.734594510e-02       203.498583 
 4.742096585e-02      203.6880427 
 4.749519802e-02      203.8780178 
 4.765047654e-02      204.2599548 
 4.775763641e-02      204.4944261 
 4.786003906e-02      204.7622278 
 4.803669292e-02      205.1692586 
 4.816082596e-02      205.4488021 
 4.828701476e-02      205.7297599 
 4.838631248e-02      205.9422405 
 4.848749675e-02      206.1588202 
 4.858923574e-02      206.3734039 
 4.867585659e-02      206.5538012 
 4.881126044e-02      206.8295101 
 4.891517433e-02      207.0392384 
 4.909944838e-02      207.4027543 
 4.919204754e-02      207.5811695 
 4.928525650e-02      207.7596083 
 4.937996712e-02      207.9388547 
 4.947351067e-02      208.1145483 
 4.960317804e-02      208.3530651 
 4.971591944e-02      208.5579105 
 4.981380222e-02      208.7324496 
 4.992876314e-02      208.9357533 
 5.017934627e-02      209.3705803 
 5.031442001e-02      209.5999612 
 5.045139857e-02      209.8287788 
 5.067656135e-02      210.1980888 
 5.083493134e-02      210.4542234 
 5.098284350e-02      210.6553166 
 5.111887528e-02      210.8997948 
 5.128186125e-02      211.1511747 
 5.142635135e-02      211.3720072 
 5.155527897e-02      211.5632228 
 5.168419601e-02      211.7540518 
 5.181460377e-02      211.9450719 
 5.194509269e-02      212.1343177 
 5.211493978e-02       212.376661 
 5.230552790e-02      212.6454323 
 5.249619494e-02      212.9095264 
 5.269107939e-02      213.1761518 
 5.284677452e-02      213.3859197 
 5.298371493e-02      213.5679991 
 5.314212654e-02      213.7772902 
 5.328047794e-02      213.9564077 
 5.350168221e-02      214.2405393 
 5.376459979e-02      214.5732813 
 5.402808196e-02      214.9005897 
 5.421307491e-02      215.1285652 
 5.435618902e-02      215.3025768 
 5.452190056e-02       215.502518 
 5.466649086e-02      215.6751352 
 5.485591377e-02       215.897935 
 5.503293525e-02      216.0666212 
 5.517045716e-02      216.2637157 
 5.542538246e-02       216.554938 
 5.559443582e-02      216.7461636 
 5.576477743e-02       216.937995 
 5.608818637e-02      217.2956342 
 5.625987682e-02      217.4839303 
 5.640889354e-02      217.6461865 
 5.658396248e-02      217.8352081 
 5.675584284e-02      218.0208656 
 5.701558140e-02      218.2999295 
 5.723327800e-02      218.5302715 
 5.745312377e-02       218.760636 
 5.762817753e-02      218.9408571 
 5.780437669e-02      219.1213371 
 5.795799826e-02      219.2758694 
 5.813652398e-02      219.4542829 
 5.829198805e-02      219.6073574 
 5.842273041e-02      219.7354991 
 5.860310080e-02      219.9103491 
 5.873637874e-02      220.0375484 
 5.886912161e-02      220.1653974 
 5.904814786e-02      220.3346724 
 5.922586285e-02      220.5028125 
 5.953954384e-02       220.796717 
 5.973833210e-02      220.9818583 
 5.993998556e-02      221.1686191 
 6.014103741e-02      221.3517379 
 6.033975076e-02      221.5329264 
 6.060630666e-02      221.7748494 
 6.078285114e-02      221.9324637 
 6.107185252e-02      222.1908227 
 6.124740656e-02      222.3477596 
 6.140057192e-02      222.4837543 
 6.155460405e-02      222.6205693 
 6.168559396e-02      222.7342486 
 6.186329024e-02      222.8874387 
 6.208682465e-02      223.0745398 
 6.235357570e-02      223.2940732 
 6.269102678e-02        223.56231 
 6.286864274e-02      223.7053132 
 6.304587274e-02      223.8454724 
 6.324886305e-02      224.0039086 
 6.347386349e-02      224.1809862 
 6.365125352e-02      224.3172057 
 6.394628733e-02       224.534425 
 6.417548120e-02      224.6947961 
 6.440681457e-02      224.8503752 
 6.461810796e-02      224.9869107 
 6.485558229e-02      225.1381695 
 6.506921610e-02      225.2740211 
 6.523592763e-02      225.3796345 
 6.555183548e-02      225.5779407 
 6.576943620e-02      225.7166877 
 6.598672744e-02      225.8533764 
 6.615287200e-02      225.9565735 
 6.634362836e-02      226.0777325 
 6.657137062e-02      226.2200407 
 6.676151256e-02      226.3404085 
 6.695909126e-02      226.4711827 
 6.715885117e-02      226.6006879 
 6.744073969e-02      226.7762452 
 6.767102681e-02      226.9114963 
 6.792749332e-02      227.0480592 
 6.813626357e-02      227.1502699 
 6.834596585e-02      227.2472937 
 6.880787726e-02      227.4301108 
 6.902260382e-02      227.5091498 
 6.931661445e-02      227.6111794 
 6.958493673e-02      227.7005334 
 7.005385741e-02      227.8459427 
 7.042524905e-02      227.9546947 
 7.064712505e-02      228.0157711 
 7.095180166e-02      228.0970124 
 7.121906059e-02      228.1575194 
 7.145672248e-02      228.2200835 
 7.162563252e-02      228.2602559 
 7.200122397e-02      228.3470844 
 7.244463810e-02       228.448518 
 7.268202192e-02      228.5034298 
 7.301796935e-02      228.5826887 
 7.326421109e-02      228.6413412 
 7.354950759e-02      228.7106778 
 7.387011973e-02      228.7928501 
 7.406289103e-02      228.8445089 
 7.425715073e-02      228.8981773 
 7.452698050e-02      228.9754364 
 7.479900747e-02       229.056023 
 7.519545137e-02      229.1795064 
 7.556067660e-02      229.3032039 
 7.587158041e-02      229.4180437 
 7.641343072e-02       229.643197 
 7.679155882e-02      229.8314052 
 7.725774185e-02      230.1200761 
 7.773125082e-02      230.4417533 
 7.835144910e-02      230.9501213 
 7.891190028e-02      231.4850024 
 7.927862652e-02      231.8656132 
P1 
 1.702253736e-02      44.63506834 
 1.565023681e-02      52.45054282 
 1.481118199e-02      58.85292829 
 1.416032853e-02      65.35741227 
 1.348491693e-02       72.8905454 
 1.300965976e-02       80.5463291 
 1.269199051e-02      90.20518725 
 1.273437652e-02      97.09545555 
 1.286423598e-02      101.9542361 
 1.305771600e-02      106.5997264 
 1.334185063e-02      112.2582481 
 1.363804873e-02      117.0785577 
 1.408179375e-02       122.826158 
 1.474960659e-02      129.1372128 
 1.524958502e-02        134.61133 
 1.615653149e-02      143.6808246 
 1.715950510e-02      151.8058265 
 1.954956840e-02      162.3235386 
 2.043315916e-02      166.2259261 
 2.077602739e-02      168.3737174 
 2.081686998e-02      168.7182408 
 2.084452582e-02      168.7849233 
 2.086013964e-02      168.7650022 
 2.086430134e-02      168.7256279 
 2.085833462e-02      168.6989451 
 2.084455970e-02      168.6694188 
 2.081217174e-02       168.626887 
 2.077133970e-02      168.5875234 
 2.072303992e-02      168.5524227 
 2.064349737e-02      168.5033662 
 2.060194291e-02      168.4838717 
 2.054136399e-02      168.4589347 
 2.049719942e-02      168.4444788 
 2.042494641e-02      168.4296696 
 2.039170856e-02      168.4256033 
 2.035248252e-02      168.4246948 
 2.031327387e-02      168.4264445 
 2.023397751e-02      168.4408812 
 2.018440090e-02      168.4600755 
 2.011655304e-02      168.4937335 
 2.006674831e-02      168.5267015 
 1.998274361e-02      168.5970401 
 1.991028065e-02      168.6726178 
 1.986587126e-02      168.7259094 
 1.982017827e-02      168.7832431 
 1.979318735e-02      168.8231212 
 1.974814392e-02      168.8907514 
 1.970407814e-02      168.9626403 
 1.965367449e-02      169.0498317 
 1.958063881e-02      169.1873464 
 1.953584174e-02      169.2777199 
 1.949713734e-02      169.3596115 
 1.945226511e-02      169.4600939 
 1.940697371e-02      169.5646481 
 1.936864704e-02       169.658418 
 1.931837057e-02      169.7855411 
 1.927892115e-02      169.8882706 
 1.924594292e-02      169.9768635 
 1.920119811e-02      170.0999423 
 1.915661517e-02      170.2283208 
 1.910596264e-02      170.3774673 
 1.907350718e-02      170.4773224 
 1.904051951e-02      170.5804348 
 1.900193285e-02      170.7024413 
 1.892951327e-02      170.9380031 
 1.889119982e-02      171.0662765 
 1.884716556e-02      171.2184128 
 1.880280262e-02      171.3732714 
 1.874907870e-02      171.5744952 
 1.865776323e-02      171.9339883 
 1.861618260e-02      172.1065213 
 1.856272294e-02      172.3308005 
 1.849399146e-02      172.6244305 
 1.842973949e-02      172.9081952 
 1.838851336e-02      173.0994236 
 1.834813627e-02       173.293395 
 1.831927062e-02      173.5120117 
 1.826617639e-02      173.6956316 
 1.822068794e-02      173.9289739 
 1.818645058e-02      174.1113105 
 1.815169415e-02      174.2970976 
 1.811195885e-02      174.5137277 
 1.807857221e-02      174.7032562 
 1.804514711e-02      174.8948419 
 1.800177755e-02      175.1493481 
 1.796419094e-02      175.3747558 
 1.793159953e-02      175.5745056 
 1.790383065e-02      175.7479969 
 1.787625082e-02      175.9217149 
 1.784469017e-02      176.1284507 
 1.780910761e-02      176.3664159 
 1.777781778e-02      176.5786689 
 1.775139130e-02      176.7584636 
 1.771743149e-02      177.0060549 
 1.766657555e-02      177.3802415 
 1.762876685e-02      177.6669544 
 1.760040721e-02      177.8872737 
 1.754364576e-02      178.3456524 
 1.751183958e-02       178.609476 
 1.748898919e-02       178.807126 
 1.746595442e-02      179.0090931 
 1.743905105e-02      179.2469129 
 1.742065834e-02      179.4118395 
 1.738763246e-02      179.7233105 
 1.735884931e-02      180.0000409 
 1.733008045e-02      180.2805422 
 1.730961520e-02      180.4877543 
 1.728573439e-02      180.7370326 
 1.725900496e-02      181.0232065 
 1.722951810e-02      181.3490832 
 1.720415493e-02      181.6400423 
 1.716091931e-02      182.1569047 
 1.713709153e-02      182.4553685 
 1.711655595e-02      182.7202421 
 1.709954006e-02        182.94233 
 1.706935539e-02      183.3657219 
 1.704831713e-02      183.6729318 
 1.702785604e-02      183.9819971 
 1.700545685e-02      184.3332524 
 1.698385792e-02      184.6865243 
 1.696082126e-02       185.085879 
 1.694308409e-02      185.4078341 
 1.693071089e-02      185.6454794 
 1.690464093e-02      186.1750708 
 1.688774969e-02      186.5428275 
 1.687007493e-02      186.9578421 
 1.685350671e-02       187.370449 
 1.683563250e-02      187.8781725 
 1.683858473e-02      188.2713454 
 1.681442185e-02      188.5543404 
 1.680085177e-02      189.0662794 
 1.679247104e-02      189.4133277 
 1.678582734e-02      189.7112044 
 1.677871161e-02      190.1062475 
 1.677193557e-02      190.5435703 
 1.676812648e-02      190.8473129 
 1.676357098e-02      191.2866112 
 1.676097017e-02       191.688734 
 1.675891203e-02      192.1312535 
 1.675857772e-02      192.5810505 
 1.675931744e-02      192.9388649 
 1.676071936e-02      193.2981959 
 1.676458171e-02      193.7995727 
 1.676925344e-02      194.2033213 
 1.677606130e-02      194.5859921 
 1.678155690e-02      195.0271389 
 1.678781858e-02      195.3429158 
 1.679924311e-02      195.8496484 
 1.681604654e-02      196.4924148 
 1.682712979e-02      196.8630731 
 1.684402741e-02      197.3727767 
 1.685734235e-02      197.7396022 
 1.687381097e-02      198.1589266 
 1.690606663e-02      198.9003512 
 1.694693474e-02      199.7395023 
 1.696691841e-02      200.1114977 
 1.698293848e-02      200.3883022 
 1.699855562e-02      200.6658315 
 1.703315122e-02      201.2274429 
 1.706025789e-02      201.5775944 
 1.708172410e-02      201.9699592 
 1.712501556e-02      202.5761241 
 1.715631442e-02       202.993933 
 1.718870563e-02      203.4153835 
 1.721526944e-02      203.7363885 
 1.724240797e-02      204.0634525 
 1.727011801e-02      204.3882624 
 1.729417361e-02      204.6622713 
 1.733253577e-02       205.082462 
 1.736226722e-02      205.4027012 
 1.741626363e-02      205.9597855 
 1.744397318e-02      206.2341818 
 1.747206195e-02      206.5089362 
 1.750097109e-02      206.7855068 
 1.752980293e-02      207.0570098 
 1.757048610e-02      207.4266741 
 1.760628007e-02      207.7447709 
 1.763776264e-02      208.0163723 
 1.767500883e-02      208.3331584 
 1.775791378e-02      209.0122445 
 1.780325623e-02       209.371782 
 1.784992770e-02      209.7310438 
 1.792771685e-02      210.3121885 
 1.798311097e-02      210.7158613 
 1.803911748e-02         211.0391 
 1.808460639e-02      211.4205614 
 1.814369167e-02       211.818814 
 1.819649394e-02      212.1686934 
 1.824432478e-02      212.4730126 
 1.829233155e-02      212.7766075 
 1.834137188e-02      213.0804155 
 1.839074440e-02      213.3818409 